# generated using pymatgen
data_Li4SiSnS6
_symmetry_space_group_name_H-M   'P 1'
_cell_length_a   7.34467098
_cell_length_b   9.74619308
_cell_length_c   7.10269154
_cell_angle_alpha   90.40955986
_cell_angle_beta   90.75537012
_cell_angle_gamma   91.38411756
_symmetry_Int_Tables_number   1
_chemical_formula_structural   Li4SiSnS6
_chemical_formula_sum   'Li8 Si2 Sn2 S12'
_cell_volume   508.22229976
_cell_formula_units_Z   2
loop_
 _symmetry_equiv_pos_site_id
 _symmetry_equiv_pos_as_xyz
  1  'x, y, z'
loop_
 _atom_site_type_symbol
 _atom_site_label
 _atom_site_symmetry_multiplicity
 _atom_site_fract_x
 _atom_site_fract_y
 _atom_site_fract_z
 _atom_site_occupancy
  Li  Li0  1  0.06905863  0.25729026  0.50218570  1
  Li  Li1  1  0.56905963  0.75728926  0.00218470  1
  Li  Li2  1  0.44418211  0.89047709  0.33952086  1
  Li  Li3  1  -0.05582089  0.39047809  0.83952086  1
  Li  Li4  1  0.99415069  0.77840301  0.05413794  1
  Li  Li5  1  0.49414969  0.27840101  0.55413694  1
  Li  Li6  1  0.28350330  0.46056094  0.06425557  1
  Li  Li7  1  0.78350330  0.96056194  0.56425557  1
  Si  Si8  1  0.80978002  0.46156317  0.20424292  1
  Si  Si9  1  0.30977902  0.96156317  0.70424392  1
  Sn  Sn10  1  0.13650177  0.63081459  0.51875485  1
  Sn  Sn11  1  0.63650077  0.13081459  0.01875485  1
  S  S12  1  0.30783755  0.07022345  0.96762488  1
  S  S13  1  0.80783955  0.57022445  0.46762388  1
  S  S14  1  0.74392854  0.93838293  0.19571982  1
  S  S15  1  0.24392854  0.43838293  0.69572082  1
  S  S16  1  0.76601174  0.19159744  0.71868936  1
  S  S17  1  0.26601374  0.69159744  0.21868936  1
  S  S18  1  0.02040381  0.32088098  0.17587584  1
  S  S19  1  0.52040381  0.82088098  0.67587484  1
  S  S20  1  0.29061926  0.08619572  0.46672795  1
  S  S21  1  0.79062226  0.58619572  0.96672595  1
  S  S22  1  0.55623257  0.33582040  0.21447332  1
  S  S23  1  0.05623157  0.83581840  0.71447532  1
