# generated using pymatgen
data_Li4SiSnS6
_symmetry_space_group_name_H-M   'P 1'
_cell_length_a   14.68934196
_cell_length_b   9.74619308
_cell_length_c   14.20538308
_cell_angle_alpha   90.40955986
_cell_angle_beta   90.75537012
_cell_angle_gamma   91.38411756
_symmetry_Int_Tables_number   1
_chemical_formula_structural   Li4SiSnS6
_chemical_formula_sum   'Li32 Si8 Sn8 S48'
_cell_volume   2032.88919678
_cell_formula_units_Z   8
loop_
 _symmetry_equiv_pos_site_id
 _symmetry_equiv_pos_as_xyz
  1  'x, y, z'
loop_
 _atom_site_type_symbol
 _atom_site_label
 _atom_site_symmetry_multiplicity
 _atom_site_fract_x
 _atom_site_fract_y
 _atom_site_fract_z
 _atom_site_occupancy
  Li  Li0  1  0.03452932  0.25729026  0.25109285  1.0
  Li  Li1  1  0.03452932  0.25729026  0.75109285  1.0
  Li  Li2  1  0.53452932  0.25729026  0.25109285  1.0
  Li  Li3  1  0.53452932  0.25729026  0.75109285  1.0
  Li  Li4  1  0.28452982  0.75728926  0.00109235  1.0
  Li  Li5  1  0.28452982  0.75728926  0.50109235  1.0
  Li  Li6  1  0.78452982  0.75728926  0.00109235  1.0
  Li  Li7  1  0.78452982  0.75728926  0.50109235  1.0
  Li  Li8  1  0.22209106  0.89047709  0.16976043  1.0
  Li  Li9  1  0.22209106  0.89047709  0.66976043  1.0
  Li  Li10  1  0.72209106  0.89047709  0.16976043  1.0
  Li  Li11  1  0.72209106  0.89047709  0.66976043  1.0
  Li  Li12  1  0.47208956  0.39047809  0.41976043  1.0
  Li  Li13  1  0.47208956  0.39047809  0.91976043  1.0
  Li  Li14  1  0.97208956  0.39047809  0.41976043  1.0
  Li  Li15  1  0.97208956  0.39047809  0.91976043  1.0
  Li  Li16  1  0.49707535  0.77840301  0.02706897  1.0
  Li  Li17  1  0.49707535  0.77840301  0.52706897  1.0
  Li  Li18  1  0.99707535  0.77840301  0.02706897  1.0
  Li  Li19  1  0.99707535  0.77840301  0.52706897  1.0
  Li  Li20  1  0.24707485  0.27840101  0.27706847  1.0
  Li  Li21  1  0.24707485  0.27840101  0.77706847  1.0
  Li  Li22  1  0.74707485  0.27840101  0.27706847  1.0
  Li  Li23  1  0.74707485  0.27840101  0.77706847  1.0
  Li  Li24  1  0.14175165  0.46056094  0.03212778  1.0
  Li  Li25  1  0.14175165  0.46056094  0.53212779  1.0
  Li  Li26  1  0.64175165  0.46056094  0.03212778  1.0
  Li  Li27  1  0.64175165  0.46056094  0.53212779  1.0
  Li  Li28  1  0.39175165  0.96056194  0.28212779  1.0
  Li  Li29  1  0.39175165  0.96056194  0.78212778  1.0
  Li  Li30  1  0.89175165  0.96056194  0.28212779  1.0
  Li  Li31  1  0.89175165  0.96056194  0.78212779  1.0
  Si  Si32  1  0.40489001  0.46156317  0.10212146  1.0
  Si  Si33  1  0.40489001  0.46156317  0.60212146  1.0
  Si  Si34  1  0.90489001  0.46156317  0.10212146  1.0
  Si  Si35  1  0.90489001  0.46156317  0.60212146  1.0
  Si  Si36  1  0.15488951  0.96156317  0.35212196  1.0
  Si  Si37  1  0.15488951  0.96156317  0.85212196  1.0
  Si  Si38  1  0.65488951  0.96156317  0.35212196  1.0
  Si  Si39  1  0.65488951  0.96156317  0.85212196  1.0
  Sn  Sn40  1  0.06825089  0.63081459  0.25937742  1.0
  Sn  Sn41  1  0.06825089  0.63081459  0.75937742  1.0
  Sn  Sn42  1  0.56825089  0.63081459  0.25937742  1.0
  Sn  Sn43  1  0.56825089  0.63081459  0.75937742  1.0
  Sn  Sn44  1  0.31825039  0.13081459  0.00937743  1.0
  Sn  Sn45  1  0.31825039  0.13081459  0.50937743  1.0
  Sn  Sn46  1  0.81825039  0.13081459  0.00937743  1.0
  Sn  Sn47  1  0.81825039  0.13081459  0.50937743  1.0
  S  S48  1  0.15391878  0.07022345  0.48381244  1.0
  S  S49  1  0.15391878  0.07022345  0.98381244  1.0
  S  S50  1  0.65391878  0.07022345  0.48381244  1.0
  S  S51  1  0.65391878  0.07022345  0.98381244  1.0
  S  S52  1  0.40391977  0.57022445  0.23381194  1.0
  S  S53  1  0.40391977  0.57022445  0.73381194  1.0
  S  S54  1  0.90391978  0.57022445  0.23381194  1.0
  S  S55  1  0.90391978  0.57022445  0.73381194  1.0
  S  S56  1  0.37196427  0.93838293  0.09785991  1.0
  S  S57  1  0.37196427  0.93838293  0.59785991  1.0
  S  S58  1  0.87196427  0.93838293  0.09785991  1.0
  S  S59  1  0.87196427  0.93838293  0.59785991  1.0
  S  S60  1  0.12196427  0.43838293  0.34786041  1.0
  S  S61  1  0.12196427  0.43838293  0.84786041  1.0
  S  S62  1  0.62196427  0.43838293  0.34786041  1.0
  S  S63  1  0.62196427  0.43838293  0.84786041  1.0
  S  S64  1  0.38300587  0.19159744  0.35934468  1.0
  S  S65  1  0.38300587  0.19159744  0.85934468  1.0
  S  S66  1  0.88300587  0.19159744  0.35934468  1.0
  S  S67  1  0.88300587  0.19159744  0.85934468  1.0
  S  S68  1  0.13300687  0.69159744  0.10934468  1.0
  S  S69  1  0.13300687  0.69159744  0.60934468  1.0
  S  S70  1  0.63300687  0.69159744  0.10934468  1.0
  S  S71  1  0.63300687  0.69159744  0.60934468  1.0
  S  S72  1  0.01020191  0.32088098  0.08793792  1.0
  S  S73  1  0.01020191  0.32088098  0.58793792  1.0
  S  S74  1  0.51020191  0.32088098  0.08793792  1.0
  S  S75  1  0.51020191  0.32088098  0.58793792  1.0
  S  S76  1  0.26020191  0.82088098  0.33793742  1.0
  S  S77  1  0.26020191  0.82088098  0.83793742  1.0
  S  S78  1  0.76020191  0.82088098  0.33793742  1.0
  S  S79  1  0.76020191  0.82088098  0.83793742  1.0
  S  S80  1  0.14530963  0.08619572  0.23336398  1.0
  S  S81  1  0.14530963  0.08619572  0.73336398  1.0
  S  S82  1  0.64530963  0.08619572  0.23336398  1.0
  S  S83  1  0.64530963  0.08619572  0.73336397  1.0
  S  S84  1  0.39531113  0.58619572  0.48336297  1.0
  S  S85  1  0.39531113  0.58619572  0.98336297  1.0
  S  S86  1  0.89531113  0.58619572  0.48336297  1.0
  S  S87  1  0.89531113  0.58619572  0.98336297  1.0
  S  S88  1  0.27811629  0.33582040  0.10723666  1.0
  S  S89  1  0.27811629  0.33582040  0.60723666  1.0
  S  S90  1  0.77811629  0.33582040  0.10723666  1.0
  S  S91  1  0.77811629  0.33582040  0.60723666  1.0
  S  S92  1  0.02811579  0.83581840  0.35723766  1.0
  S  S93  1  0.02811579  0.83581840  0.85723766  1.0
  S  S94  1  0.52811579  0.83581840  0.35723766  1.0
  S  S95  1  0.52811579  0.83581840  0.85723766  1.0
