data_14_contcar_1x1x2
_audit_creation_date              2023-09-15
_audit_creation_method            'Materials Studio'
_symmetry_space_group_name_H-M    'P1'
_symmetry_Int_Tables_number       1
_symmetry_cell_setting            triclinic
loop_
_symmetry_equiv_pos_as_xyz
  x,y,z
_cell_length_a                    7.3297
_cell_length_b                    9.9258
_cell_length_c                    13.9175
_cell_angle_alpha                 88.6904
_cell_angle_beta                  88.6124
_cell_angle_gamma                 85.7452
loop_
_atom_site_label
_atom_site_type_symbol
_atom_site_fract_x
_atom_site_fract_y
_atom_site_fract_z
_atom_site_U_iso_or_equiv
_atom_site_adp_type
_atom_site_occupancy
Li1    Li    0.64052   0.44767   0.29939   0.00000  Uiso   1.00
Li2    Li    0.14051   0.94767   0.04939   0.00000  Uiso   1.00
Li3    Li    0.58513   0.92313   0.14547   0.00000  Uiso   1.00
Li4    Li    0.08513   0.42313   0.39547   0.00000  Uiso   1.00
Li5    Li    0.21508   0.75387   0.30440   0.00000  Uiso   1.00
Li6    Li    0.71508   0.25387   0.05440   0.00000  Uiso   1.00
Li7    Li    0.90260   0.61985   0.14068   0.00000  Uiso   1.00
Li8    Li    0.40260   0.11985   0.39068   0.00000  Uiso   1.00
Si9    Si    0.42239   0.60040   0.06803   0.00000  Uiso   1.00
Si10   Si    0.92239   0.10040   0.31803   0.00000  Uiso   1.00
Sn11   Sn    0.25876   0.27299   0.15875   0.00000  Uiso   1.00
Sn12   Sn    0.75876   0.77299   0.40875   0.00000  Uiso   1.00
S13    S     0.45145   0.12292   0.06327   0.00000  Uiso   1.00
S14    S     0.95145   0.62292   0.31327   0.00000  Uiso   1.00
S15    S     0.85130   0.83275   0.06202   0.00000  Uiso   1.00
S16    S     0.35130   0.33275   0.31202   0.00000  Uiso   1.00
S17    S     0.97033   0.15092   0.16431   0.00000  Uiso   1.00
S18    S     0.47033   0.65092   0.41431   0.00000  Uiso   1.00
S19    S     0.17582   0.48323   0.06135   0.00000  Uiso   1.00
S20    S     0.67582   0.98323   0.31135   0.00000  Uiso   1.00
S21    S     0.34183   0.77545   0.14366   0.00000  Uiso   1.00
S22    S     0.84183   0.27545   0.39366   0.00000  Uiso   1.00
S23    S     0.64694   0.47897   0.11974   0.00000  Uiso   1.00
S24    S     0.14694   0.97897   0.36974   0.00000  Uiso   1.00
Li25   Li    0.64052   0.44767   0.79939   0.00000  Uiso   1.00
Li26   Li    0.14051   0.94767   0.54939   0.00000  Uiso   1.00
Li27   Li    0.58513   0.92313   0.64547   0.00000  Uiso   1.00
Li28   Li    0.08513   0.42313   0.89547   0.00000  Uiso   1.00
Li29   Li    0.21508   0.75387   0.80440   0.00000  Uiso   1.00
Li30   Li    0.71508   0.25387   0.55440   0.00000  Uiso   1.00
Li31   Li    0.90260   0.61985   0.64068   0.00000  Uiso   1.00
Li32   Li    0.40260   0.11985   0.89068   0.00000  Uiso   1.00
Si33   Si    0.42239   0.60040   0.56803   0.00000  Uiso   1.00
Si34   Si    0.92239   0.10040   0.81803   0.00000  Uiso   1.00
Sn35   Sn    0.25876   0.27299   0.65875   0.00000  Uiso   1.00
Sn36   Sn    0.75876   0.77299   0.90875   0.00000  Uiso   1.00
S37    S     0.45145   0.12292   0.56327   0.00000  Uiso   1.00
S38    S     0.95145   0.62292   0.81327   0.00000  Uiso   1.00
S39    S     0.85130   0.83275   0.56202   0.00000  Uiso   1.00
S40    S     0.35130   0.33275   0.81202   0.00000  Uiso   1.00
S41    S     0.97033   0.15092   0.66431   0.00000  Uiso   1.00
S42    S     0.47033   0.65092   0.91431   0.00000  Uiso   1.00
S43    S     0.17582   0.48323   0.56135   0.00000  Uiso   1.00
S44    S     0.67582   0.98323   0.81135   0.00000  Uiso   1.00
S45    S     0.34183   0.77545   0.64366   0.00000  Uiso   1.00
S46    S     0.84183   0.27545   0.89366   0.00000  Uiso   1.00
S47    S     0.64694   0.47897   0.61974   0.00000  Uiso   1.00
S48    S     0.14694   0.97897   0.86974   0.00000  Uiso   1.00
