# generated using pymatgen
data_Li2GeS3
_symmetry_space_group_name_H-M   'P 1'
_cell_length_a   13.25000000
_cell_length_b   12.16430000
_cell_length_c   12.84100000
_cell_angle_alpha   90.00000000
_cell_angle_beta   76.01170000
_cell_angle_gamma   90.00000000
_symmetry_Int_Tables_number   1
_chemical_formula_structural   Li2GeS3
_chemical_formula_sum   'Li32 Ge16 S48'
_cell_volume   2008.29758944
_cell_formula_units_Z   16
loop_
 _symmetry_equiv_pos_site_id
 _symmetry_equiv_pos_as_xyz
  1  'x, y, z'
loop_
 _atom_site_type_symbol
 _atom_site_label
 _atom_site_symmetry_multiplicity
 _atom_site_fract_x
 _atom_site_fract_y
 _atom_site_fract_z
 _atom_site_occupancy
  Li  Li0  1  0.29567500  0.25057000  0.45535000  1.0
  Li  Li1  1  0.29567500  0.25057000  0.95535000  1.0
  Li  Li2  1  0.79567500  0.25057000  0.45535000  1.0
  Li  Li3  1  0.79567500  0.25057000  0.95535000  1.0
  Li  Li4  1  0.29567500  0.74943000  0.20535000  1.0
  Li  Li5  1  0.29567500  0.74943000  0.70535000  1.0
  Li  Li6  1  0.79567500  0.74943000  0.20535000  1.0
  Li  Li7  1  0.79567500  0.74943000  0.70535000  1.0
  Li  Li8  1  0.04567500  0.75057000  0.45535000  1.0
  Li  Li9  1  0.04567500  0.75057000  0.95535000  1.0
  Li  Li10  1  0.54567500  0.75057000  0.45535000  1.0
  Li  Li11  1  0.54567500  0.75057000  0.95535000  1.0
  Li  Li12  1  0.04567500  0.24943000  0.20535000  1.0
  Li  Li13  1  0.04567500  0.24943000  0.70535000  1.0
  Li  Li14  1  0.54567500  0.24943000  0.20535000  1.0
  Li  Li15  1  0.54567500  0.24943000  0.70535000  1.0
  Li  Li16  1  0.28389500  0.59251000  0.45910000  1.0
  Li  Li17  1  0.28389500  0.59251000  0.95910000  1.0
  Li  Li18  1  0.78389500  0.59251000  0.45910000  1.0
  Li  Li19  1  0.78389500  0.59251000  0.95910000  1.0
  Li  Li20  1  0.28389500  0.40749000  0.20910000  1.0
  Li  Li21  1  0.28389500  0.40749000  0.70910000  1.0
  Li  Li22  1  0.78389500  0.40749000  0.20910000  1.0
  Li  Li23  1  0.78389500  0.40749000  0.70910000  1.0
  Li  Li24  1  0.03389500  0.09251000  0.45910000  1.0
  Li  Li25  1  0.03389500  0.09251000  0.95910000  1.0
  Li  Li26  1  0.53389500  0.09251000  0.45910000  1.0
  Li  Li27  1  0.53389500  0.09251000  0.95910000  1.0
  Li  Li28  1  0.03389500  0.90749000  0.20910000  1.0
  Li  Li29  1  0.03389500  0.90749000  0.70910000  1.0
  Li  Li30  1  0.53389500  0.90749000  0.20910000  1.0
  Li  Li31  1  0.53389500  0.90749000  0.70910000  1.0
  Ge  Ge32  1  0.05407500  0.58346000  0.19484500  1.0
  Ge  Ge33  1  0.05407500  0.58346000  0.69484500  1.0
  Ge  Ge34  1  0.55407500  0.58346000  0.19484500  1.0
  Ge  Ge35  1  0.55407500  0.58346000  0.69484500  1.0
  Ge  Ge36  1  0.05407500  0.41654000  0.44484500  1.0
  Ge  Ge37  1  0.05407500  0.41654000  0.94484500  1.0
  Ge  Ge38  1  0.55407500  0.41654000  0.44484500  1.0
  Ge  Ge39  1  0.55407500  0.41654000  0.94484500  1.0
  Ge  Ge40  1  0.30407500  0.08346000  0.19484500  1.0
  Ge  Ge41  1  0.30407500  0.08346000  0.69484500  1.0
  Ge  Ge42  1  0.80407500  0.08346000  0.19484500  1.0
  Ge  Ge43  1  0.80407500  0.08346000  0.69484500  1.0
  Ge  Ge44  1  0.30407500  0.91654000  0.44484500  1.0
  Ge  Ge45  1  0.30407500  0.91654000  0.94484500  1.0
  Ge  Ge46  1  0.80407500  0.91654000  0.44484500  1.0
  Ge  Ge47  1  0.80407500  0.91654000  0.94484500  1.0
  S  S48  1  0.48272500  0.73154000  0.14532500  1.0
  S  S49  1  0.48272500  0.73154000  0.64532500  1.0
  S  S50  1  0.98272500  0.73154000  0.14532500  1.0
  S  S51  1  0.98272500  0.73154000  0.64532500  1.0
  S  S52  1  0.48272500  0.26846000  0.39532500  1.0
  S  S53  1  0.48272500  0.26846000  0.89532500  1.0
  S  S54  1  0.98272500  0.26846000  0.39532500  1.0
  S  S55  1  0.98272500  0.26846000  0.89532500  1.0
  S  S56  1  0.23272500  0.23154000  0.14532500  1.0
  S  S57  1  0.23272500  0.23154000  0.64532500  1.0
  S  S58  1  0.73272500  0.23154000  0.14532500  1.0
  S  S59  1  0.73272500  0.23154000  0.64532500  1.0
  S  S60  1  0.23272500  0.76846000  0.39532500  1.0
  S  S61  1  0.23272500  0.76846000  0.89532500  1.0
  S  S62  1  0.73272500  0.76846000  0.39532500  1.0
  S  S63  1  0.73272500  0.76846000  0.89532500  1.0
  S  S64  1  0.22445000  0.41880000  0.40367500  1.0
  S  S65  1  0.22445000  0.41880000  0.90367500  1.0
  S  S66  1  0.72445000  0.41880000  0.40367500  1.0
  S  S67  1  0.72445000  0.41880000  0.90367500  1.0
  S  S68  1  0.22445000  0.58120000  0.15367500  1.0
  S  S69  1  0.22445000  0.58120000  0.65367500  1.0
  S  S70  1  0.72445000  0.58120000  0.15367500  1.0
  S  S71  1  0.72445000  0.58120000  0.65367500  1.0
  S  S72  1  0.47445000  0.91880000  0.40367500  1.0
  S  S73  1  0.47445000  0.91880000  0.90367500  1.0
  S  S74  1  0.97445000  0.91880000  0.40367500  1.0
  S  S75  1  0.97445000  0.91880000  0.90367500  1.0
  S  S76  1  0.47445000  0.08120000  0.15367500  1.0
  S  S77  1  0.47445000  0.08120000  0.65367500  1.0
  S  S78  1  0.97445000  0.08120000  0.15367500  1.0
  S  S79  1  0.97445000  0.08120000  0.65367500  1.0
  S  S80  1  0.48649000  0.42814000  0.13012000  1.0
  S  S81  1  0.48649000  0.42814000  0.63012000  1.0
  S  S82  1  0.98649000  0.42814000  0.13012000  1.0
  S  S83  1  0.98649000  0.42814000  0.63012000  1.0
  S  S84  1  0.48649000  0.57186000  0.38012000  1.0
  S  S85  1  0.48649000  0.57186000  0.88012000  1.0
  S  S86  1  0.98649000  0.57186000  0.38012000  1.0
  S  S87  1  0.98649000  0.57186000  0.88012000  1.0
  S  S88  1  0.23649000  0.92814000  0.13012000  1.0
  S  S89  1  0.23649000  0.92814000  0.63012000  1.0
  S  S90  1  0.73649000  0.92814000  0.13012000  1.0
  S  S91  1  0.73649000  0.92814000  0.63012000  1.0
  S  S92  1  0.23649000  0.07186000  0.38012000  1.0
  S  S93  1  0.23649000  0.07186000  0.88012000  1.0
  S  S94  1  0.73649000  0.07186000  0.38012000  1.0
  S  S95  1  0.73649000  0.07186000  0.88012000  1.0
