# generated using pymatgen
data_Li2SiS3
_symmetry_space_group_name_H-M   'P 1'
_cell_length_a   6.80250396
_cell_length_b   11.72619618
_cell_length_c   6.01238069
_cell_angle_alpha   90.00000000
_cell_angle_beta   90.00000000
_cell_angle_gamma   90.00000000
_symmetry_Int_Tables_number   1
_chemical_formula_structural   Li2SiS3
_chemical_formula_sum   'Li8 Si4 S12'
_cell_volume   479.59255188
_cell_formula_units_Z   4
loop_
 _symmetry_equiv_pos_site_id
 _symmetry_equiv_pos_as_xyz
  1  'x, y, z'
loop_
 _atom_site_type_symbol
 _atom_site_label
 _atom_site_symmetry_multiplicity
 _atom_site_fract_x
 _atom_site_fract_y
 _atom_site_fract_z
 _atom_site_occupancy
  Li  Li0  1  0.65631034  0.83410641  0.00913620  1
  Li  Li1  1  0.34368966  0.16589359  0.50913620  1
  Li  Li2  1  0.34368966  0.83410641  0.50913620  1
  Li  Li3  1  0.65631034  0.16589359  0.00913620  1
  Li  Li4  1  0.15631034  0.33410641  0.00913620  1
  Li  Li5  1  0.84368966  0.66589359  0.50913620  1
  Li  Li6  1  0.84368966  0.33410641  0.50913620  1
  Li  Li7  1  0.15631034  0.66589359  0.00913620  1
  Si  Si8  1  0.16481676  -0.00000000  0.99645742  1
  Si  Si9  1  0.83518324  -0.00000000  0.49645742  1
  Si  Si10  1  0.66481676  0.50000000  0.99645742  1
  Si  Si11  1  0.33518324  0.50000000  0.49645742  1
  S  S12  1  0.69188042  0.84879808  0.41062845  1
  S  S13  1  0.30811958  0.15120192  0.91062845  1
  S  S14  1  0.30811958  0.84879808  0.91062845  1
  S  S15  1  0.69188042  0.15120192  0.41062845  1
  S  S16  1  0.13846951  -0.00000000  0.36881328  1
  S  S17  1  0.86153049  -0.00000000  0.86881328  1
  S  S18  1  0.19188042  0.34879808  0.41062845  1
  S  S19  1  0.80811958  0.65120192  0.91062845  1
  S  S20  1  0.80811958  0.34879808  0.91062845  1
  S  S21  1  0.19188042  0.65120192  0.41062845  1
  S  S22  1  0.63846951  0.50000000  0.36881328  1
  S  S23  1  0.36153049  0.50000000  0.86881328  1
