# generated using pymatgen
data_Li4SiSnS6
_symmetry_space_group_name_H-M   'P 1'
_cell_length_a   16.19097934
_cell_length_b   14.66937292
_cell_length_c   10.37696683
_cell_angle_alpha   120.34808532
_cell_angle_beta   81.57017740
_cell_angle_gamma   103.83682280
_symmetry_Int_Tables_number   1
_chemical_formula_structural   Li4SiSnS6
_chemical_formula_sum   'Li32 Si8 Sn8 S48'
_cell_volume   2064.22471289
_cell_formula_units_Z   8
loop_
 _symmetry_equiv_pos_site_id
 _symmetry_equiv_pos_as_xyz
  1  'x, y, z'
loop_
 _atom_site_type_symbol
 _atom_site_label
 _atom_site_symmetry_multiplicity
 _atom_site_fract_x
 _atom_site_fract_y
 _atom_site_fract_z
 _atom_site_occupancy
  Li  Li0  1  0.19688384  0.47570336  0.59994348  1.0
  Li  Li1  1  0.19688384  0.97570336  0.59994348  1.0
  Li  Li2  1  0.69688384  0.47570336  0.59994348  1.0
  Li  Li3  1  0.69688384  0.97570336  0.59994348  1.0
  Li  Li4  1  0.29662086  0.26145714  0.34442847  1.0
  Li  Li5  1  0.29662087  0.76145714  0.34442847  1.0
  Li  Li6  1  0.79662086  0.26145714  0.34442847  1.0
  Li  Li7  1  0.79662086  0.76145714  0.34442847  1.0
  Li  Li8  1  0.04285896  0.17604002  0.28121473  1.0
  Li  Li9  1  0.04285896  0.67604002  0.28121473  1.0
  Li  Li10  1  0.54285896  0.17604002  0.28121473  1.0
  Li  Li11  1  0.54285896  0.67604002  0.28121473  1.0
  Li  Li12  1  0.37307523  0.16510947  0.58551840  1.0
  Li  Li13  1  0.37307523  0.66510947  0.58551840  1.0
  Li  Li14  1  0.87307523  0.16510947  0.58551840  1.0
  Li  Li15  1  0.87307523  0.66510947  0.58551840  1.0
  Li  Li16  1  0.44897905  0.18332622  0.94763121  1.0
  Li  Li17  1  0.44897906  0.68332622  0.94763121  1.0
  Li  Li18  1  0.94897905  0.18332622  0.94763121  1.0
  Li  Li19  1  0.94897906  0.68332622  0.94763121  1.0
  Li  Li20  1  0.34993554  0.39857739  0.20438800  1.0
  Li  Li21  1  0.34993554  0.89857739  0.20438800  1.0
  Li  Li22  1  0.84993554  0.39857739  0.20438800  1.0
  Li  Li23  1  0.84993553  0.89857739  0.20438800  1.0
  Li  Li24  1  0.10364000  0.48427025  0.26772044  1.0
  Li  Li25  1  0.10364000  0.98427026  0.26772044  1.0
  Li  Li26  1  0.60364000  0.48427025  0.26772044  1.0
  Li  Li27  1  0.60364000  0.98427026  0.26772044  1.0
  Li  Li28  1  0.27419869  0.49439764  0.96357388  1.0
  Li  Li29  1  0.27419869  0.99439765  0.96357388  1.0
  Li  Li30  1  0.77419869  0.49439764  0.96357388  1.0
  Li  Li31  1  0.77419869  0.99439765  0.96357388  1.0
  Si  Si32  1  0.43883430  0.41829575  0.54976222  1.0
  Si  Si33  1  0.43883430  0.91829575  0.54976222  1.0
  Si  Si34  1  0.93883430  0.41829575  0.54976222  1.0
  Si  Si35  1  0.93883430  0.91829575  0.54976222  1.0
  Si  Si36  1  0.20761844  0.24129643  0.99894026  1.0
  Si  Si37  1  0.20761844  0.74129642  0.99894026  1.0
  Si  Si38  1  0.70761844  0.24129643  0.99894026  1.0
  Si  Si39  1  0.70761844  0.74129642  0.99894026  1.0
  Sn  Sn40  1  0.11801539  0.20750541  0.64600089  1.0
  Sn  Sn41  1  0.11801539  0.70750541  0.64600089  1.0
  Sn  Sn42  1  0.61801539  0.20750541  0.64600089  1.0
  Sn  Sn43  1  0.61801538  0.70750541  0.64600089  1.0
  Sn  Sn44  1  0.02906123  0.45290714  0.90350587  1.0
  Sn  Sn45  1  0.02906123  0.95290714  0.90350587  1.0
  Sn  Sn46  1  0.52906123  0.45290714  0.90350587  1.0
  Sn  Sn47  1  0.52906123  0.95290714  0.90350587  1.0
  S  S48  1  0.48480666  0.47931278  0.14755091  1.0
  S  S49  1  0.48480666  0.97931278  0.14755091  1.0
  S  S50  1  0.98480667  0.47931278  0.14755091  1.0
  S  S51  1  0.98480667  0.97931278  0.14755091  1.0
  S  S52  1  0.16726715  0.41742385  0.78008462  1.0
  S  S53  1  0.16726715  0.91742384  0.78008462  1.0
  S  S54  1  0.66726715  0.41742385  0.78008462  1.0
  S  S55  1  0.66726715  0.91742384  0.78008462  1.0
  S  S56  1  0.41446762  0.47852005  0.79182802  1.0
  S  S57  1  0.41446762  0.97852005  0.79182802  1.0
  S  S58  1  0.91446762  0.47852005  0.79182802  1.0
  S  S59  1  0.91446762  0.97852005  0.79182802  1.0
  S  S60  1  0.08010478  0.17169851  0.03607175  1.0
  S  S61  1  0.08010478  0.67169850  0.03607175  1.0
  S  S62  1  0.58010478  0.17169851  0.03607175  1.0
  S  S63  1  0.58010478  0.67169850  0.03607175  1.0
  S  S64  1  0.16174266  0.18034201  0.40136489  1.0
  S  S65  1  0.16174266  0.68034202  0.40136489  1.0
  S  S66  1  0.66174266  0.18034201  0.40136489  1.0
  S  S67  1  0.66174266  0.68034202  0.40136489  1.0
  S  S68  1  0.47994320  0.24307664  0.76917430  1.0
  S  S69  1  0.47994320  0.74307664  0.76917430  1.0
  S  S70  1  0.97994320  0.24307664  0.76917430  1.0
  S  S71  1  0.97994320  0.74307664  0.76917430  1.0
  S  S72  1  0.23218406  0.18094633  0.75731427  1.0
  S  S73  1  0.23218406  0.68094633  0.75731427  1.0
  S  S74  1  0.73218406  0.18094633  0.75731427  1.0
  S  S75  1  0.73218406  0.68094633  0.75731427  1.0
  S  S76  1  0.06620714  0.48822486  0.51273162  1.0
  S  S77  1  0.06620714  0.98822486  0.51273162  1.0
  S  S78  1  0.56620714  0.48822486  0.51273162  1.0
  S  S79  1  0.56620714  0.98822486  0.51273162  1.0
  S  S80  1  0.42102911  0.24915175  0.43014503  1.0
  S  S81  1  0.42102911  0.74915175  0.43014503  1.0
  S  S82  1  0.92102911  0.24915175  0.43014503  1.0
  S  S83  1  0.92102911  0.74915175  0.43014503  1.0
  S  S84  1  0.34505034  0.46462887  0.48048447  1.0
  S  S85  1  0.34505034  0.96462888  0.48048447  1.0
  S  S86  1  0.84505034  0.46462887  0.48048447  1.0
  S  S87  1  0.84505034  0.96462888  0.48048447  1.0
  S  S88  1  0.22537591  0.41035468  0.11881942  1.0
  S  S89  1  0.22537591  0.91035467  0.11881942  1.0
  S  S90  1  0.72537592  0.41035468  0.11881942  1.0
  S  S91  1  0.72537591  0.91035467  0.11881942  1.0
  S  S92  1  0.30138932  0.19507946  0.06820185  1.0
  S  S93  1  0.30138933  0.69507946  0.06820185  1.0
  S  S94  1  0.80138933  0.19507946  0.06820185  1.0
  S  S95  1  0.80138932  0.69507946  0.06820185  1.0
