# generated using pymatgen
data_Li2GeS3
_symmetry_space_group_name_H-M   'P 1'
_cell_length_a   13.80020000
_cell_length_b   13.80020000
_cell_length_c   11.88150000
_cell_angle_alpha   90.00000000
_cell_angle_beta   90.00000000
_cell_angle_gamma   90.00000000
_symmetry_Int_Tables_number   1
_chemical_formula_structural   Li2GeS3
_chemical_formula_sum   'Li32 Ge16 S48'
_cell_volume   2262.77844636
_cell_formula_units_Z   16
loop_
 _symmetry_equiv_pos_site_id
 _symmetry_equiv_pos_as_xyz
  1  'x, y, z'
loop_
 _atom_site_type_symbol
 _atom_site_label
 _atom_site_symmetry_multiplicity
 _atom_site_fract_x
 _atom_site_fract_y
 _atom_site_fract_z
 _atom_site_occupancy
  Li  Li0  1  0.41477000  0.18085000  0.18382000  1.0
  Li  Li1  1  0.41477000  0.68085000  0.18382000  1.0
  Li  Li2  1  0.91477000  0.18085000  0.18382000  1.0
  Li  Li3  1  0.91477000  0.68085000  0.18382000  1.0
  Li  Li4  1  0.08523000  0.31915000  0.18382000  1.0
  Li  Li5  1  0.08523000  0.81915000  0.18382000  1.0
  Li  Li6  1  0.58523000  0.31915000  0.18382000  1.0
  Li  Li7  1  0.58523000  0.81915000  0.18382000  1.0
  Li  Li8  1  0.31915000  0.41477000  0.68382000  1.0
  Li  Li9  1  0.31915000  0.91477000  0.68382000  1.0
  Li  Li10  1  0.81915000  0.41477000  0.68382000  1.0
  Li  Li11  1  0.81915000  0.91477000  0.68382000  1.0
  Li  Li12  1  0.18085000  0.08523000  0.68382000  1.0
  Li  Li13  1  0.18085000  0.58523000  0.68382000  1.0
  Li  Li14  1  0.68085000  0.08523000  0.68382000  1.0
  Li  Li15  1  0.68085000  0.58523000  0.68382000  1.0
  Li  Li16  1  0.08523000  0.31915000  0.81618000  1.0
  Li  Li17  1  0.08523000  0.81915000  0.81618000  1.0
  Li  Li18  1  0.58523000  0.31915000  0.81618000  1.0
  Li  Li19  1  0.58523000  0.81915000  0.81618000  1.0
  Li  Li20  1  0.41477000  0.18085000  0.81618000  1.0
  Li  Li21  1  0.41477000  0.68085000  0.81618000  1.0
  Li  Li22  1  0.91477000  0.18085000  0.81618000  1.0
  Li  Li23  1  0.91477000  0.68085000  0.81618000  1.0
  Li  Li24  1  0.18085000  0.08523000  0.31618000  1.0
  Li  Li25  1  0.18085000  0.58523000  0.31618000  1.0
  Li  Li26  1  0.68085000  0.08523000  0.31618000  1.0
  Li  Li27  1  0.68085000  0.58523000  0.31618000  1.0
  Li  Li28  1  0.31915000  0.41477000  0.31618000  1.0
  Li  Li29  1  0.31915000  0.91477000  0.31618000  1.0
  Li  Li30  1  0.81915000  0.41477000  0.31618000  1.0
  Li  Li31  1  0.81915000  0.91477000  0.31618000  1.0
  Ge  Ge32  1  0.34040500  0.31921500  0.00000000  1.0
  Ge  Ge33  1  0.34040500  0.81921500  0.00000000  1.0
  Ge  Ge34  1  0.84040500  0.31921500  0.00000000  1.0
  Ge  Ge35  1  0.84040500  0.81921500  0.00000000  1.0
  Ge  Ge36  1  0.15959500  0.18078500  0.00000000  1.0
  Ge  Ge37  1  0.15959500  0.68078500  0.00000000  1.0
  Ge  Ge38  1  0.65959500  0.18078500  0.00000000  1.0
  Ge  Ge39  1  0.65959500  0.68078500  0.00000000  1.0
  Ge  Ge40  1  0.18078500  0.34040500  0.50000000  1.0
  Ge  Ge41  1  0.18078500  0.84040500  0.50000000  1.0
  Ge  Ge42  1  0.68078500  0.34040500  0.50000000  1.0
  Ge  Ge43  1  0.68078500  0.84040500  0.50000000  1.0
  Ge  Ge44  1  0.31921500  0.15959500  0.50000000  1.0
  Ge  Ge45  1  0.31921500  0.65959500  0.50000000  1.0
  Ge  Ge46  1  0.81921500  0.15959500  0.50000000  1.0
  Ge  Ge47  1  0.81921500  0.65959500  0.50000000  1.0
  S  S48  1  0.14070000  0.41208500  0.65791000  1.0
  S  S49  1  0.14070000  0.91208500  0.65791000  1.0
  S  S50  1  0.64070000  0.41208500  0.65791000  1.0
  S  S51  1  0.64070000  0.91208500  0.65791000  1.0
  S  S52  1  0.35930000  0.08791500  0.65791000  1.0
  S  S53  1  0.35930000  0.58791500  0.65791000  1.0
  S  S54  1  0.85930000  0.08791500  0.65791000  1.0
  S  S55  1  0.85930000  0.58791500  0.65791000  1.0
  S  S56  1  0.08791500  0.14070000  0.15791000  1.0
  S  S57  1  0.08791500  0.64070000  0.15791000  1.0
  S  S58  1  0.58791500  0.14070000  0.15791000  1.0
  S  S59  1  0.58791500  0.64070000  0.15791000  1.0
  S  S60  1  0.41208500  0.35930000  0.15791000  1.0
  S  S61  1  0.41208500  0.85930000  0.15791000  1.0
  S  S62  1  0.91208500  0.35930000  0.15791000  1.0
  S  S63  1  0.91208500  0.85930000  0.15791000  1.0
  S  S64  1  0.35930000  0.08791500  0.34209000  1.0
  S  S65  1  0.35930000  0.58791500  0.34209000  1.0
  S  S66  1  0.85930000  0.08791500  0.34209000  1.0
  S  S67  1  0.85930000  0.58791500  0.34209000  1.0
  S  S68  1  0.14070000  0.41208500  0.34209000  1.0
  S  S69  1  0.14070000  0.91208500  0.34209000  1.0
  S  S70  1  0.64070000  0.41208500  0.34209000  1.0
  S  S71  1  0.64070000  0.91208500  0.34209000  1.0
  S  S72  1  0.41208500  0.35930000  0.84209000  1.0
  S  S73  1  0.41208500  0.85930000  0.84209000  1.0
  S  S74  1  0.91208500  0.35930000  0.84209000  1.0
  S  S75  1  0.91208500  0.85930000  0.84209000  1.0
  S  S76  1  0.08791500  0.14070000  0.84209000  1.0
  S  S77  1  0.08791500  0.64070000  0.84209000  1.0
  S  S78  1  0.58791500  0.14070000  0.84209000  1.0
  S  S79  1  0.58791500  0.64070000  0.84209000  1.0
  S  S80  1  0.17649500  0.35072500  0.00000000  1.0
  S  S81  1  0.17649500  0.85072500  0.00000000  1.0
  S  S82  1  0.67649500  0.35072500  0.00000000  1.0
  S  S83  1  0.67649500  0.85072500  0.00000000  1.0
  S  S84  1  0.32350500  0.14927500  0.00000000  1.0
  S  S85  1  0.32350500  0.64927500  0.00000000  1.0
  S  S86  1  0.82350500  0.14927500  0.00000000  1.0
  S  S87  1  0.82350500  0.64927500  0.00000000  1.0
  S  S88  1  0.14927500  0.17649500  0.50000000  1.0
  S  S89  1  0.14927500  0.67649500  0.50000000  1.0
  S  S90  1  0.64927500  0.17649500  0.50000000  1.0
  S  S91  1  0.64927500  0.67649500  0.50000000  1.0
  S  S92  1  0.35072500  0.32350500  0.50000000  1.0
  S  S93  1  0.35072500  0.82350500  0.50000000  1.0
  S  S94  1  0.85072500  0.32350500  0.50000000  1.0
  S  S95  1  0.85072500  0.82350500  0.50000000  1.0
