data_94_contcar
_audit_creation_date              2024-02-08
_audit_creation_method            'Materials Studio'
_symmetry_space_group_name_H-M    'P1'
_symmetry_Int_Tables_number       1
_symmetry_cell_setting            triclinic
loop_
_symmetry_equiv_pos_as_xyz
  x,y,z
_cell_length_a                    8.2129
_cell_length_b                    11.5516
_cell_length_c                    10.7027
_cell_angle_alpha                 89.9892
_cell_angle_beta                  90.0883
_cell_angle_gamma                 69.0344
loop_
_atom_site_label
_atom_site_type_symbol
_atom_site_fract_x
_atom_site_fract_y
_atom_site_fract_z
_atom_site_U_iso_or_equiv
_atom_site_adp_type
_atom_site_occupancy
Li1    Li    0.90703   0.24016   0.28679   0.00000  Uiso   1.00
Li2    Li    0.40773   0.74027   0.28705   0.00000  Uiso   1.00
Li3    Li    0.15870   0.32593   0.03694   0.00000  Uiso   1.00
Li4    Li    0.65936   0.82628   0.03709   0.00000  Uiso   1.00
Li5    Li    0.64895   0.15537   0.03830   0.00000  Uiso   1.00
Li6    Li    0.14951   0.65507   0.03857   0.00000  Uiso   1.00
Li7    Li    0.41693   0.41124   0.28861   0.00000  Uiso   1.00
Li8    Li    0.91708   0.91118   0.28856   0.00000  Uiso   1.00
Si9    Si    0.40821   0.07589   0.28724   0.00000  Uiso   1.00
Si10   Si    0.90869   0.57574   0.28758   0.00000  Uiso   1.00
Si11   Si    0.65791   0.49087   0.03757   0.00000  Uiso   1.00
Si12   Si    0.15789  -0.00930   0.03711   0.00000  Uiso   1.00
S13    S     0.17803   0.13794   0.41213   0.00000  Uiso   1.00
S14    S     0.67858   0.63820   0.41269   0.00000  Uiso   1.00
S15    S     0.88834   0.42845   0.16269   0.00000  Uiso   1.00
S16    S     0.38813  -0.07138   0.16243   0.00000  Uiso   1.00
S17    S     0.40058   0.22961   0.18141   0.00000  Uiso   1.00
S18    S     0.90104   0.72942   0.18166   0.00000  Uiso   1.00
S19    S     0.66596   0.33725   0.43161   0.00000  Uiso   1.00
S20    S     0.16614  -0.16303   0.43144   0.00000  Uiso   1.00
S21    S    -0.06846   0.07073   0.14241   0.00000  Uiso   1.00
S22    S     0.43164   0.57113   0.14290   0.00000  Uiso   1.00
S23    S     1.13508   0.49523   0.39339   0.00000  Uiso   1.00
S24    S     0.63477  -0.00446   0.39287   0.00000  Uiso   1.00
Li25   Li    0.90703   0.24016   0.78679   0.00000  Uiso   1.00
Li26   Li    0.40773   0.74027   0.78705   0.00000  Uiso   1.00
Li27   Li    0.15870   0.32593   0.53694   0.00000  Uiso   1.00
Li28   Li    0.65936   0.82628   0.53709   0.00000  Uiso   1.00
Li29   Li    0.64895   0.15537   0.53830   0.00000  Uiso   1.00
Li30   Li    0.14951   0.65507   0.53857   0.00000  Uiso   1.00
Li31   Li    0.41693   0.41124   0.78861   0.00000  Uiso   1.00
Li32   Li    0.91708   0.91118   0.78856   0.00000  Uiso   1.00
Si33   Si    0.40821   0.07589   0.78724   0.00000  Uiso   1.00
Si34   Si    0.90869   0.57574   0.78758   0.00000  Uiso   1.00
Si35   Si    0.65791   0.49087   0.53757   0.00000  Uiso   1.00
Si36   Si    0.15789  -0.00930   0.53711   0.00000  Uiso   1.00
S37    S     0.17803   0.13794   0.91213   0.00000  Uiso   1.00
S38    S     0.67858   0.63820   0.91269   0.00000  Uiso   1.00
S39    S     0.88834   0.42845   0.66269   0.00000  Uiso   1.00
S40    S     0.38813  -0.07138   0.66243   0.00000  Uiso   1.00
S41    S     0.40058   0.22961   0.68141   0.00000  Uiso   1.00
S42    S     0.90104   0.72942   0.68166   0.00000  Uiso   1.00
S43    S     0.66596   0.33725   0.93161   0.00000  Uiso   1.00
S44    S     0.16614  -0.16303   0.93144   0.00000  Uiso   1.00
S45    S    -0.06846   0.07073   0.64241   0.00000  Uiso   1.00
S46    S     0.43164   0.57113   0.64290   0.00000  Uiso   1.00
S47    S     1.13508   0.49523   0.89339   0.00000  Uiso   1.00
S48    S     0.63477  -0.00446   0.89287   0.00000  Uiso   1.00
loop_
_geom_bond_atom_site_label_1
_geom_bond_atom_site_label_2
_geom_bond_distance
_geom_bond_site_symmetry_2
_ccdc_geom_bond_type
Si9    S13     2.216   .     S
Si9    S16     2.215   .     S
Si9    S17     2.088   .     S
Si9    S24     2.088   .     S
Si10   S14     2.218   .     S
Si10   S15     2.217   .     S
Si10   S18     2.088   .     S
Si10   S23     2.088   .     S
Si11   S38     2.218   1_554 S
Si11   S15     2.216   .     S
Si11   S43     2.087   1_554 S
Si11   S22     2.088   .     S
Si12   S37     2.216   1_554 S
Si12   S16     2.216   .     S
Si12   S44     2.086   1_554 S
Si12   S21     2.087   .     S
S13    Si36    2.216   .     S
S14    Si35    2.218   .     S
S19    Si35    2.087   .     S
S20    Si36    2.086   .     S
Si33   S37     2.216   .     S
Si33   S40     2.215   .     S
Si33   S41     2.088   .     S
Si33   S48     2.088   .     S
Si34   S38     2.218   .     S
Si34   S39     2.217   .     S
Si34   S42     2.088   .     S
Si34   S47     2.088   .     S
Si35   S39     2.216   .     S
Si35   S46     2.088   .     S
Si36   S40     2.216   .     S
Si36   S45     2.087   .     S
S37    Si12    2.216   1_556 S
S38    Si11    2.218   1_556 S
S43    Si11    2.087   1_556 S
S44    Si12    2.086   1_556 S
