# generated using pymatgen
data_Li4SiGeS6
_symmetry_space_group_name_H-M   'P 1'
_cell_length_a   6.73332758
_cell_length_b   6.81247592
_cell_length_c   12.96247029
_cell_angle_alpha   99.47551061
_cell_angle_beta   84.14745180
_cell_angle_gamma   120.12887313
_symmetry_Int_Tables_number   1
_chemical_formula_structural   Li4SiGeS6
_chemical_formula_sum   'Li8 Si2 Ge2 S12'
_cell_volume   507.11893214
_cell_formula_units_Z   2
loop_
 _symmetry_equiv_pos_site_id
 _symmetry_equiv_pos_as_xyz
  1  'x, y, z'
loop_
 _atom_site_type_symbol
 _atom_site_label
 _atom_site_symmetry_multiplicity
 _atom_site_fract_x
 _atom_site_fract_y
 _atom_site_fract_z
 _atom_site_occupancy
  Li  Li0  1  0.63260119  0.26743224  0.34120047  1
  Li  Li1  1  0.59324176  0.67301632  0.61330171  1
  Li  Li2  1  0.63144363  0.46856075  0.09073925  1
  Li  Li3  1  0.90437671  0.90842234  0.36369867  1
  Li  Li4  1  -0.10046358  0.07173697  0.08099443  1
  Li  Li5  1  0.57994475  0.05293842  0.85040029  1
  Li  Li6  1  0.25900042  0.01329231  0.61950034  1
  Li  Li7  1  0.25072604  0.39809902  0.85642494  1
  Si  Si8  1  0.26284705  0.85484440  0.20888594  1
  Si  Si9  1  0.92543161  0.71874953  0.86305010  1
  Ge  Ge10  1  0.27997525  0.56435107  0.36480093  1
  Ge  Ge11  1  0.93693083  0.34039504  0.62248619  1
  S  S12  1  0.25666189  0.52182878  0.18641631  1
  S  S13  1  0.60903706  0.03686268  0.65185477  1
  S  S14  1  0.57147368  0.12279488  0.16041056  1
  S  S15  1  0.61460078  0.43480265  0.90614188  1
  S  S16  1  -0.04921516  0.82911799  0.18056588  1
  S  S17  1  0.24895046  0.35436881  0.66482670  1
  S  S18  1  0.22122439  0.73945777  0.91118617  1
  S  S19  1  0.58220454  0.58147093  0.42172694  1
  S  S20  1  0.92813540  0.67219868  0.67867852  1
  S  S21  1  0.27775113  0.90397021  0.38717354  1
  S  S22  1  0.91649316  0.02931282  0.89572212  1
  S  S23  1  0.94550498  0.29450343  0.43250334  1
