# generated using pymatgen
data_Li4SiSnS6
_symmetry_space_group_name_H-M   'P 1'
_cell_length_a   10.87296635
_cell_length_b   14.52944204
_cell_length_c   12.04708662
_cell_angle_alpha   90.00000000
_cell_angle_beta   90.03881606
_cell_angle_gamma   90.00000000
_symmetry_Int_Tables_number   1
_chemical_formula_structural   Li4SiSnS6
_chemical_formula_sum   'Li32 Si8 Sn8 S48'
_cell_volume   1903.17583226
_cell_formula_units_Z   8
loop_
 _symmetry_equiv_pos_site_id
 _symmetry_equiv_pos_as_xyz
  1  'x, y, z'
loop_
 _atom_site_type_symbol
 _atom_site_label
 _atom_site_symmetry_multiplicity
 _atom_site_fract_x
 _atom_site_fract_y
 _atom_site_fract_z
 _atom_site_occupancy
  Li  Li0  1  0.24148801  0.26634000  0.24282681  1.0
  Li  Li1  1  0.24148801  0.26634000  0.74282681  1.0
  Li  Li2  1  0.24148801  0.76634000  0.24282681  1.0
  Li  Li3  1  0.24148801  0.76634000  0.74282681  1.0
  Li  Li4  1  0.71861535  0.26633900  0.48608149  1.0
  Li  Li5  1  0.71861535  0.26633900  0.98608149  1.0
  Li  Li6  1  0.71861535  0.76633900  0.48608149  1.0
  Li  Li7  1  0.71861535  0.76633900  0.98608149  1.0
  Li  Li8  1  0.34545367  0.01634000  0.48759844  1.0
  Li  Li9  1  0.34545367  0.01634000  0.98759844  1.0
  Li  Li10  1  0.34545367  0.51634000  0.48759844  1.0
  Li  Li11  1  0.34545367  0.51634000  0.98759844  1.0
  Li  Li12  1  0.82757358  0.01634100  0.24075162  1.0
  Li  Li13  1  0.82757358  0.01634100  0.74075163  1.0
  Li  Li14  1  0.82757358  0.51634100  0.24075162  1.0
  Li  Li15  1  0.82757358  0.51634100  0.74075163  1.0
  Li  Li16  1  0.24145675  0.01634050  0.24336317  1.0
  Li  Li17  1  0.24145675  0.01634050  0.74336317  1.0
  Li  Li18  1  0.24145675  0.51634050  0.24336317  1.0
  Li  Li19  1  0.24145675  0.51634050  0.74336317  1.0
  Li  Li20  1  0.71889327  0.01634000  0.48542271  1.0
  Li  Li21  1  0.71889327  0.01634000  0.98542271  1.0
  Li  Li22  1  0.71889327  0.51634000  0.48542271  1.0
  Li  Li23  1  0.71889327  0.51634000  0.98542271  1.0
  Li  Li24  1  0.34659651  0.26634050  0.48761323  1.0
  Li  Li25  1  0.34659651  0.26634050  0.98761324  1.0
  Li  Li26  1  0.34659651  0.76634050  0.48761324  1.0
  Li  Li27  1  0.34659651  0.76634050  0.98761323  1.0
  Li  Li28  1  0.82612242  0.26634050  0.24081869  1.0
  Li  Li29  1  0.82612242  0.26634050  0.74081869  1.0
  Li  Li30  1  0.82612242  0.76634050  0.24081869  1.0
  Li  Li31  1  0.82612242  0.76634050  0.74081869  1.0
  Si  Si32  1  0.53300242  0.14114165  0.22868765  1.0
  Si  Si33  1  0.53300242  0.14114165  0.72868765  1.0
  Si  Si34  1  0.53300242  0.64114165  0.22868765  1.0
  Si  Si35  1  0.53300242  0.64114165  0.72868765  1.0
  Si  Si36  1  0.53300242  0.39153885  0.22868715  1.0
  Si  Si37  1  0.53300242  0.39153885  0.72868715  1.0
  Si  Si38  1  0.53300242  0.89153884  0.22868715  1.0
  Si  Si39  1  0.53300242  0.89153884  0.72868715  1.0
  Sn  Sn40  1  0.03182245  0.14136008  0.49095290  1.0
  Sn  Sn41  1  0.03182245  0.14136008  0.99095290  1.0
  Sn  Sn42  1  0.03182245  0.64136008  0.49095290  1.0
  Sn  Sn43  1  0.03182245  0.64136008  0.99095290  1.0
  Sn  Sn44  1  0.03182245  0.39131992  0.49095290  1.0
  Sn  Sn45  1  0.03182245  0.39131992  0.99095290  1.0
  Sn  Sn46  1  0.03182245  0.89131992  0.49095290  1.0
  Sn  Sn47  1  0.03182245  0.89131992  0.99095290  1.0
  S  S48  1  0.03308633  0.01634050  0.13031272  1.0
  S  S49  1  0.03308633  0.01634050  0.63031272  1.0
  S  S50  1  0.03308633  0.51634050  0.13031272  1.0
  S  S51  1  0.03308633  0.51634050  0.63031272  1.0
  S  S52  1  0.53236513  0.01634000  0.34414825  1.0
  S  S53  1  0.53236513  0.01634000  0.84414825  1.0
  S  S54  1  0.53236513  0.51634000  0.34414825  1.0
  S  S55  1  0.53236513  0.51634000  0.84414825  1.0
  S  S56  1  0.36972671  0.14131753  0.13712151  1.0
  S  S57  1  0.36972671  0.14131753  0.63712151  1.0
  S  S58  1  0.36972671  0.64131753  0.13712151  1.0
  S  S59  1  0.36972671  0.64131753  0.63712151  1.0
  S  S60  1  0.69526176  0.14113237  0.13594534  1.0
  S  S61  1  0.69526176  0.14113237  0.63594534  1.0
  S  S62  1  0.69526176  0.64113236  0.13594534  1.0
  S  S63  1  0.69526176  0.64113236  0.63594534  1.0
  S  S64  1  0.21692362  0.14157785  0.38655767  1.0
  S  S65  1  0.21692362  0.14157785  0.88655767  1.0
  S  S66  1  0.21692362  0.64157785  0.38655767  1.0
  S  S67  1  0.21692362  0.64157785  0.88655767  1.0
  S  S68  1  0.84738970  0.14137716  0.38510247  1.0
  S  S69  1  0.84738970  0.14137716  0.88510247  1.0
  S  S70  1  0.84738970  0.64137716  0.38510247  1.0
  S  S71  1  0.84738970  0.64137716  0.88510247  1.0
  S  S72  1  0.03200161  0.26634000  0.13048732  1.0
  S  S73  1  0.03200161  0.26634000  0.63048731  1.0
  S  S74  1  0.03200161  0.76634000  0.13048732  1.0
  S  S75  1  0.03200161  0.76634000  0.63048731  1.0
  S  S76  1  0.53259205  0.26634050  0.34408044  1.0
  S  S77  1  0.53259205  0.26634050  0.84408044  1.0
  S  S78  1  0.53259205  0.76634050  0.34408044  1.0
  S  S79  1  0.53259205  0.76634050  0.84408044  1.0
  S  S80  1  0.36972571  0.39136246  0.13712151  1.0
  S  S81  1  0.36972571  0.39136246  0.63712151  1.0
  S  S82  1  0.36972571  0.89136246  0.13712151  1.0
  S  S83  1  0.36972571  0.89136246  0.63712151  1.0
  S  S84  1  0.69526176  0.39154713  0.13594384  1.0
  S  S85  1  0.69526176  0.39154713  0.63594384  1.0
  S  S86  1  0.69526176  0.89154713  0.13594384  1.0
  S  S87  1  0.69526176  0.89154713  0.63594384  1.0
  S  S88  1  0.21692262  0.39110264  0.38655818  1.0
  S  S89  1  0.21692262  0.39110264  0.88655818  1.0
  S  S90  1  0.21692262  0.89110264  0.38655818  1.0
  S  S91  1  0.21692262  0.89110264  0.88655818  1.0
  S  S92  1  0.84738970  0.39130384  0.38510197  1.0
  S  S93  1  0.84738970  0.39130384  0.88510197  1.0
  S  S94  1  0.84738970  0.89130384  0.38510198  1.0
  S  S95  1  0.84738970  0.89130384  0.88510197  1.0
