data_7_t7_148_sym
_audit_creation_date              2024-04-01
_audit_creation_method            'Materials Studio'
_symmetry_space_group_name_H-M    'C2/M'
_symmetry_Int_Tables_number       12
_symmetry_cell_setting            monoclinic
loop_
_symmetry_equiv_pos_as_xyz
  x,y,z
  -x,y,-z
  -x,-y,-z
  x,-y,z
  x+1/2,y+1/2,z
  -x+1/2,y+1/2,-z
  -x+1/2,-y+1/2,-z
  x+1/2,-y+1/2,z
_cell_length_a                    6.7665
_cell_length_b                    12.0835
_cell_length_c                    6.6276
_cell_angle_alpha                 90.0000
_cell_angle_beta                  88.2188
_cell_angle_gamma                 90.0000
loop_
_atom_site_label
_atom_site_type_symbol
_atom_site_fract_x
_atom_site_fract_y
_atom_site_fract_z
_atom_site_U_iso_or_equiv
_atom_site_adp_type
_atom_site_occupancy
Li0    Li   -0.64820   0.33943   0.31900   0.00000  Uiso   1.00
S12    S    -1.28838   0.34633   0.30639   0.00000  Uiso   1.00
Ge8    Ge   -1.16511   0.50000   0.18128   0.00000  Uiso   1.00
S20    S    -0.82139   0.50000   0.16854   0.00000  Uiso   1.00
loop_
_geom_bond_atom_site_label_1
_geom_bond_atom_site_label_2
_geom_bond_distance
_geom_bond_site_symmetry_2
_ccdc_geom_bond_type
S12    Ge8     2.188   .     S
Ge8    S12     2.188   4_565 S
Ge8    S20     2.325   .     S
Ge8    S20     2.323   2_355 S
S20    Ge8     2.323   2_355 S
