# generated using pymatgen
data_Li4SiSnS6
_symmetry_space_group_name_H-M   'P 1'
_cell_length_a   10.31368040
_cell_length_b   16.11431734
_cell_length_c   12.88885614
_cell_angle_alpha   90.36945375
_cell_angle_beta   89.45687118
_cell_angle_gamma   99.01228288
_symmetry_Int_Tables_number   1
_chemical_formula_structural   Li4SiSnS6
_chemical_formula_sum   'Li32 Si8 Sn8 S48'
_cell_volume   2115.53459322
_cell_formula_units_Z   8
loop_
 _symmetry_equiv_pos_site_id
 _symmetry_equiv_pos_as_xyz
  1  'x, y, z'
loop_
 _atom_site_type_symbol
 _atom_site_label
 _atom_site_symmetry_multiplicity
 _atom_site_fract_x
 _atom_site_fract_y
 _atom_site_fract_z
 _atom_site_occupancy
  Li  Li0  1  0.90089238  0.23168860  0.05732143  1.0
  Li  Li1  1  0.90089238  0.23168860  0.55732143  1.0
  Li  Li2  1  0.90089238  0.73168860  0.05732143  1.0
  Li  Li3  1  0.90089238  0.73168860  0.55732143  1.0
  Li  Li4  1  0.58833735  0.07742860  0.04247637  1.0
  Li  Li5  1  0.58833735  0.07742860  0.54247637  1.0
  Li  Li6  1  0.58833735  0.57742859  0.04247637  1.0
  Li  Li7  1  0.58833735  0.57742859  0.54247637  1.0
  Li  Li8  1  0.57921394  0.31391692  0.04311481  1.0
  Li  Li9  1  0.57921394  0.31391692  0.54311481  1.0
  Li  Li10  1  0.57921394  0.81391692  0.04311481  1.0
  Li  Li11  1  0.57921394  0.81391692  0.54311481  1.0
  Li  Li12  1  0.26240199  0.15261141  0.45971293  1.0
  Li  Li13  1  0.26240199  0.15261141  0.95971293  1.0
  Li  Li14  1  0.26240199  0.65261141  0.45971293  1.0
  Li  Li15  1  0.26240199  0.65261141  0.95971293  1.0
  Li  Li16  1  0.14885675  0.01444049  0.22381702  1.0
  Li  Li17  1  0.14885675  0.01444049  0.72381702  1.0
  Li  Li18  1  0.14885675  0.51444049  0.22381702  1.0
  Li  Li19  1  0.14885675  0.51444049  0.72381702  1.0
  Li  Li20  1  0.81071912  0.09077025  0.29957142  1.0
  Li  Li21  1  0.81071912  0.09077025  0.79957142  1.0
  Li  Li22  1  0.81071912  0.59077025  0.29957142  1.0
  Li  Li23  1  0.81071912  0.59077025  0.79957142  1.0
  Li  Li24  1  0.80915488  0.34319699  0.29651967  1.0
  Li  Li25  1  0.80915488  0.34319699  0.79651967  1.0
  Li  Li26  1  0.80915488  0.84319699  0.29651967  1.0
  Li  Li27  1  0.80915488  0.84319699  0.79651967  1.0
  Li  Li28  1  0.48738777  0.43475737  0.24095962  1.0
  Li  Li29  1  0.48738777  0.43475737  0.74095962  1.0
  Li  Li30  1  0.48738777  0.93475736  0.24095962  1.0
  Li  Li31  1  0.48738777  0.93475736  0.74095962  1.0
  Si  Si32  1  0.50248540  0.18743763  0.29991280  1.0
  Si  Si33  1  0.50248540  0.18743763  0.79991280  1.0
  Si  Si34  1  0.50248540  0.68743763  0.29991280  1.0
  Si  Si35  1  0.50248540  0.68743763  0.79991280  1.0
  Si  Si36  1  0.26367278  0.40597671  0.48178140  1.0
  Si  Si37  1  0.26367278  0.40597671  0.98178141  1.0
  Si  Si38  1  0.26367278  0.90597671  0.48178141  1.0
  Si  Si39  1  0.26367278  0.90597671  0.98178141  1.0
  Sn  Sn40  1  0.15813697  0.26939794  0.22607843  1.0
  Sn  Sn41  1  0.15813697  0.26939794  0.72607843  1.0
  Sn  Sn42  1  0.15813697  0.76939794  0.22607843  1.0
  Sn  Sn43  1  0.15813697  0.76939794  0.72607843  1.0
  Sn  Sn44  1  0.90146023  0.47477071  0.05337608  1.0
  Sn  Sn45  1  0.90146023  0.47477071  0.55337609  1.0
  Sn  Sn46  1  0.90146023  0.97477071  0.05337608  1.0
  Sn  Sn47  1  0.90146023  0.97477071  0.55337609  1.0
  S  S48  1  0.16323350  0.28363720  0.02965270  1.0
  S  S49  1  0.16323350  0.28363720  0.52965270  1.0
  S  S50  1  0.16323350  0.78363720  0.02965270  1.0
  S  S51  1  0.16323350  0.78363720  0.52965270  1.0
  S  S52  1  0.80624334  0.34370697  0.48355572  1.0
  S  S53  1  0.80624334  0.34370697  0.98355572  1.0
  S  S54  1  0.80624334  0.84370697  0.48355572  1.0
  S  S55  1  0.80624334  0.84370697  0.98355572  1.0
  S  S56  1  0.58064859  0.30369273  0.23509365  1.0
  S  S57  1  0.58064859  0.30369273  0.73509365  1.0
  S  S58  1  0.58064859  0.80369273  0.23509365  1.0
  S  S59  1  0.58064859  0.80369273  0.73509365  1.0
  S  S60  1  0.28099502  0.15517234  0.26218931  1.0
  S  S61  1  0.28099502  0.15517234  0.76218931  1.0
  S  S62  1  0.28099502  0.65517234  0.26218931  1.0
  S  S63  1  0.28099502  0.65517234  0.76218931  1.0
  S  S64  1  0.58124566  0.08538238  0.23632114  1.0
  S  S65  1  0.58124566  0.08538238  0.73632114  1.0
  S  S66  1  0.58124566  0.58538238  0.23632114  1.0
  S  S67  1  0.58124566  0.58538238  0.73632114  1.0
  S  S68  1  0.15633584  0.00611769  0.02337760  1.0
  S  S69  1  0.15633584  0.00611769  0.52337760  1.0
  S  S70  1  0.15633584  0.50611769  0.02337760  1.0
  S  S71  1  0.15633584  0.50611769  0.52337760  1.0
  S  S72  1  0.93170007  0.22961012  0.24509182  1.0
  S  S73  1  0.93170007  0.22961012  0.74509182  1.0
  S  S74  1  0.93170007  0.72961012  0.24509182  1.0
  S  S75  1  0.93170007  0.72961012  0.74509182  1.0
  S  S76  1  0.49111228  0.18528938  0.46331592  1.0
  S  S77  1  0.49111228  0.18528938  0.96331592  1.0
  S  S78  1  0.49111228  0.68528937  0.46331592  1.0
  S  S79  1  0.49111228  0.68528937  0.96331592  1.0
  S  S80  1  0.91765885  0.47780380  0.23839424  1.0
  S  S81  1  0.91765885  0.47780380  0.73839424  1.0
  S  S82  1  0.91765885  0.97780380  0.23839424  1.0
  S  S83  1  0.91765885  0.97780380  0.73839424  1.0
  S  S84  1  0.45407109  0.43312181  0.03219970  1.0
  S  S85  1  0.45407109  0.43312181  0.53219969  1.0
  S  S86  1  0.45407109  0.93312181  0.03219970  1.0
  S  S87  1  0.45407109  0.93312181  0.53219970  1.0
  S  S88  1  0.25980273  0.40367306  0.30772194  1.0
  S  S89  1  0.25980273  0.40367306  0.80772195  1.0
  S  S90  1  0.25980273  0.90367306  0.30772194  1.0
  S  S91  1  0.25980273  0.90367306  0.80772194  1.0
  S  S92  1  0.82079044  0.09364540  0.48641529  1.0
  S  S93  1  0.82079044  0.09364540  0.98641528  1.0
  S  S94  1  0.82079044  0.59364540  0.48641529  1.0
  S  S95  1  0.82079044  0.59364540  0.98641528  1.0
