# generated using pymatgen
data_Li4SiSnS6
_symmetry_space_group_name_H-M   'P 1'
_cell_length_a   10.31368040
_cell_length_b   8.05715867
_cell_length_c   6.44442807
_cell_angle_alpha   90.36945375
_cell_angle_beta   89.45687118
_cell_angle_gamma   99.01228288
_symmetry_Int_Tables_number   1
_chemical_formula_structural   Li4SiSnS6
_chemical_formula_sum   'Li8 Si2 Sn2 S12'
_cell_volume   528.88364798
_cell_formula_units_Z   2
loop_
 _symmetry_equiv_pos_site_id
 _symmetry_equiv_pos_as_xyz
  1  'x, y, z'
loop_
 _atom_site_type_symbol
 _atom_site_label
 _atom_site_symmetry_multiplicity
 _atom_site_fract_x
 _atom_site_fract_y
 _atom_site_fract_z
 _atom_site_occupancy
  Li  Li0  1  0.90089238  0.46337720  0.11464287  1
  Li  Li1  1  0.58833735  0.15485719  0.08495274  1
  Li  Li2  1  0.57921394  0.62783384  0.08622962  1
  Li  Li3  1  0.26240199  0.30522281  0.91942585  1
  Li  Li4  1  0.14885675  0.02888099  0.44763403  1
  Li  Li5  1  0.81071912  0.18154050  0.59914283  1
  Li  Li6  1  0.80915488  0.68639398  0.59303934  1
  Li  Li7  1  0.48738777  0.86951473  0.48191924  1
  Si  Si8  1  0.50248540  0.37487527  0.59982560  1
  Si  Si9  1  0.26367278  0.81195343  0.96356281  1
  Sn  Sn10  1  0.15813697  0.53879588  0.45215686  1
  Sn  Sn11  1  0.90146023  0.94954142  0.10675217  1
  S  S12  1  0.16323350  0.56727440  0.05930540  1
  S  S13  1  0.80624334  0.68741394  0.96711144  1
  S  S14  1  0.58064859  0.60738546  0.47018730  1
  S  S15  1  0.28099502  0.31034469  0.52437862  1
  S  S16  1  0.58124566  0.17076476  0.47264228  1
  S  S17  1  0.15633584  0.01223537  0.04675520  1
  S  S18  1  0.93170007  0.45922025  0.49018364  1
  S  S19  1  0.49111228  0.37057875  0.92663183  1
  S  S20  1  0.91765885  0.95560760  0.47678848  1
  S  S21  1  0.45407109  0.86624362  0.06439939  1
  S  S22  1  0.25980273  0.80734612  0.61544389  1
  S  S23  1  0.82079044  0.18729080  0.97283057  1
