# generated using pymatgen
data_LiGa(SeO3)2
_symmetry_space_group_name_H-M   'P 1'
_cell_length_a   20.08302826
_cell_length_b   10.96445903
_cell_length_c   6.50884019
_cell_angle_alpha   66.56491340
_cell_angle_beta   89.68780954
_cell_angle_gamma   104.75776536
_symmetry_Int_Tables_number   1
_chemical_formula_structural   LiGa(SeO3)2
_chemical_formula_sum   'Li8 Ga8 Se16 O48'
_cell_volume   1262.39743189
_cell_formula_units_Z   8
loop_
 _symmetry_equiv_pos_site_id
 _symmetry_equiv_pos_as_xyz
  1  'x, y, z'
loop_
 _atom_site_type_symbol
 _atom_site_label
 _atom_site_symmetry_multiplicity
 _atom_site_fract_x
 _atom_site_fract_y
 _atom_site_fract_z
 _atom_site_occupancy
  Li  Li0  1  0.44027817  0.44359041  0.02511206  1
  Li  Li1  1  0.08757155  0.08653195  -0.00080197  1
  Li  Li2  1  0.93982219  0.44404649  0.02815222  1
  Li  Li3  1  0.58764887  0.08558630  -0.00236824  1
  Li  Li4  1  0.44128264  0.94278836  0.03112674  1
  Li  Li5  1  0.08918634  0.58558198  0.00303472  1
  Li  Li6  1  0.94135936  0.94299869  0.03126376  1
  Li  Li7  1  0.58848085  0.58412251  0.00416977  1
  Ga  Ga8  1  0.16664569  0.23186868  0.41395717  1
  Ga  Ga9  1  0.36075040  0.29795504  0.60784406  1
  Ga  Ga10  1  0.66526261  0.22823880  0.41559448  1
  Ga  Ga11  1  0.86146638  0.30019045  0.60926815  1
  Ga  Ga12  1  0.16858581  0.73037953  0.42064780  1
  Ga  Ga13  1  0.36310963  0.79918352  0.61344346  1
  Ga  Ga14  1  0.66780817  0.72953410  0.42125152  1
  Ga  Ga15  1  0.86283985  0.79804125  0.61416030  1
  Se  Se16  1  0.03438410  0.23314328  0.28142623  1
  Se  Se17  1  0.99407588  0.30035062  0.74360837  1
  Se  Se18  1  0.30606738  0.49499599  0.28323446  1
  Se  Se19  1  0.22113227  0.03529756  0.74064409  1
  Se  Se20  1  0.53299651  0.22886423  0.27973337  1
  Se  Se21  1  0.49314179  0.29747588  0.73975560  1
  Se  Se22  1  0.80462185  0.49359347  0.28409442  1
  Se  Se23  1  0.72199104  0.03554329  0.74181634  1
  Se  Se24  1  0.03607102  0.73112944  0.28944442  1
  Se  Se25  1  -0.00499099  0.79819298  0.75010823  1
  Se  Se26  1  0.30755448  0.99369408  0.28628193  1
  Se  Se27  1  0.22426725  0.53454544  0.74405456  1
  Se  Se28  1  0.53543320  0.73081531  0.28871142  1
  Se  Se29  1  0.49534476  0.79907008  0.74990473  1
  Se  Se30  1  0.80714366  0.99289836  0.28873196  1
  Se  Se31  1  0.72366278  0.53371766  0.74413719  1
  O  O32  1  0.10769231  0.18804225  0.19893794  1
  O  O33  1  0.41959527  0.34114146  0.82376927  1
  O  O34  1  0.36260083  0.39777821  0.27020901  1
  O  O35  1  0.16313127  0.13037821  0.75098968  1
  O  O36  1  0.03512004  0.38938663  0.07554797  1
  O  O37  1  0.49282538  0.14149153  0.94523537  1
  O  O38  1  0.22823052  0.11246383  0.44560398  1
  O  O39  1  0.29956318  0.41682254  0.57828571  1
  O  O40  1  0.08376730  0.28238079  0.47405757  1
  O  O41  1  0.44369021  0.24859149  0.54677767  1
  O  O42  1  0.29890755  0.12149236  0.79698500  1
  O  O43  1  0.22724530  0.41120324  0.22739175  1
  O  O44  1  0.60715041  0.18656099  0.19661936  1
  O  O45  1  0.91995953  0.34243885  0.82765829  1
  O  O46  1  0.86127316  0.39657624  0.27130351  1
  O  O47  1  0.66368750  0.12991936  0.75247062  1
  O  O48  1  0.53437076  0.38720938  0.07899183  1
  O  O49  1  0.99329683  0.14245571  0.94464647  1
  O  O50  1  0.72787332  0.11090969  0.44673381  1
  O  O51  1  0.79980241  0.41829950  0.57931536  1
  O  O52  1  0.58101912  0.27335058  0.47916165  1
  O  O53  1  0.94556533  0.25527570  0.54514171  1
  O  O54  1  0.80011319  0.12217224  0.79571355  1
  O  O55  1  0.72541016  0.40848487  0.23314645  1
  O  O56  1  0.10929354  0.68701889  0.20522779  1
  O  O57  1  0.42121929  0.84164848  0.83203414  1
  O  O58  1  0.36536071  0.89844267  0.27590135  1
  O  O59  1  0.16744847  0.63118774  0.75771553  1
  O  O60  1  0.03669439  0.88759747  0.08400332  1
  O  O61  1  0.49394461  0.64101920  0.95159941  1
  O  O62  1  0.23049648  0.61227873  0.44881634  1
  O  O63  1  0.30055707  0.91665601  0.58148474  1
  O  O64  1  0.08548784  0.77906214  0.48357812  1
  O  O65  1  0.44732540  0.75414693  0.55092678  1
  O  O66  1  0.30329872  0.61877182  0.79755167  1
  O  O67  1  0.22967163  0.90757676  0.23096263  1
  O  O68  1  0.60887623  0.68671973  0.20503638  1
  O  O69  1  0.92100326  0.84113423  0.83226786  1
  O  O70  1  0.86516840  0.89802041  0.27736621  1
  O  O71  1  0.66642321  0.62960232  0.75794911  1
  O  O72  1  0.53590367  0.88717311  0.08334332  1
  O  O73  1  -0.00633342  0.64060606  0.95259946  1
  O  O74  1  0.72992331  0.61205734  0.44911019  1
  O  O75  1  0.80062039  0.91594913  0.58353611  1
  O  O76  1  0.58489227  0.77937745  0.48189128  1
  O  O77  1  0.94705051  0.75265796  0.55162735  1
  O  O78  1  0.80222071  0.61853355  0.79915016  1
  O  O79  1  0.72935102  0.90660956  0.23328499  1
