data_11_contcar
_audit_creation_date              2024-02-16
_audit_creation_method            'Materials Studio'
_symmetry_space_group_name_H-M    'P1'
_symmetry_Int_Tables_number       1
_symmetry_cell_setting            triclinic
loop_
_symmetry_equiv_pos_as_xyz
  x,y,z
_cell_length_a                    13.6201
_cell_length_b                    14.0153
_cell_length_c                    10.1784
_cell_angle_alpha                 84.9108
_cell_angle_beta                  89.9402
_cell_angle_gamma                 90.0721
loop_
_atom_site_label
_atom_site_type_symbol
_atom_site_fract_x
_atom_site_fract_y
_atom_site_fract_z
_atom_site_U_iso_or_equiv
_atom_site_adp_type
_atom_site_occupancy
Li1    Li    0.40945   0.14329   0.03614   0.00000  Uiso   1.00
Li2    Li    0.24920   0.14005   0.53812   0.00000  Uiso   1.00
Li3    Li    0.23513   0.43620   0.85949   0.00000  Uiso   1.00
Li4    Li    0.15901   0.38545   0.54209   0.00000  Uiso   1.00
Li5    Li    0.48417   0.19557   0.35725   0.00000  Uiso   1.00
Li6    Li    0.49590   0.38806   0.03902   0.00000  Uiso   1.00
Li7    Li    0.17421   0.19107   0.86000   0.00000  Uiso   1.00
Li8    Li    0.41932   0.43872   0.35463   0.00000  Uiso   1.00
Si9    Si    0.23949   0.29720   0.18492   0.00000  Uiso   1.00
Si10   Si    0.41535   0.29738   0.68297   0.00000  Uiso   1.00
Ge11   Ge    0.49186   0.04747   0.67716   0.00000  Uiso   1.00
Ge12   Ge    0.16521   0.04732   0.17989   0.00000  Uiso   1.00
S13    S     0.25550   0.06833   0.00166   0.00000  Uiso   1.00
S14    S     0.00635   0.02443   0.16106   0.00000  Uiso   1.00
S15    S     0.17439   0.17665   0.31256   0.00000  Uiso   1.00
S16    S     0.40440   0.07096   0.49713   0.00000  Uiso   1.00
S17    S     0.48300   0.17749   0.80844   0.00000  Uiso   1.00
S18    S     0.39099   0.27504   0.16659   0.00000  Uiso   1.00
S19    S     0.15055   0.02212   0.66434   0.00000  Uiso   1.00
S20    S     0.23006   0.41801   0.31305   0.00000  Uiso   1.00
S21    S     0.42393   0.41882   0.80977   0.00000  Uiso   1.00
S22    S     0.15533   0.31815   0.01350   0.00000  Uiso   1.00
S23    S     0.49795   0.32146   0.51033   0.00000  Uiso   1.00
S24    S     0.26393   0.27240   0.66798   0.00000  Uiso   1.00
Li25   Li    0.90945   0.14329   0.03614   0.00000  Uiso   1.00
Li26   Li    0.74920   0.14005   0.53812   0.00000  Uiso   1.00
Li27   Li    0.73513   0.43620   0.85949   0.00000  Uiso   1.00
Li28   Li    0.65901   0.38545   0.54209   0.00000  Uiso   1.00
Li29   Li    0.98417   0.19557   0.35725   0.00000  Uiso   1.00
Li30   Li    0.99590   0.38806   0.03902   0.00000  Uiso   1.00
Li31   Li    0.67421   0.19107   0.86000   0.00000  Uiso   1.00
Li32   Li    0.91932   0.43872   0.35463   0.00000  Uiso   1.00
Si33   Si    0.73949   0.29720   0.18492   0.00000  Uiso   1.00
Si34   Si    0.91535   0.29738   0.68297   0.00000  Uiso   1.00
Ge35   Ge    0.99186   0.04747   0.67716   0.00000  Uiso   1.00
Ge36   Ge    0.66521   0.04732   0.17989   0.00000  Uiso   1.00
S37    S     0.75550   0.06833   0.00166   0.00000  Uiso   1.00
S38    S     0.50635   0.02443   0.16106   0.00000  Uiso   1.00
S39    S     0.67439   0.17665   0.31256   0.00000  Uiso   1.00
S40    S     0.90440   0.07096   0.49713   0.00000  Uiso   1.00
S41    S     0.98300   0.17749   0.80844   0.00000  Uiso   1.00
S42    S     0.89099   0.27504   0.16659   0.00000  Uiso   1.00
S43    S     0.65055   0.02212   0.66434   0.00000  Uiso   1.00
S44    S     0.73006   0.41801   0.31305   0.00000  Uiso   1.00
S45    S     0.92393   0.41882   0.80977   0.00000  Uiso   1.00
S46    S     0.65533   0.31815   0.01350   0.00000  Uiso   1.00
S47    S     0.99795   0.32146   0.51033   0.00000  Uiso   1.00
S48    S     0.76393   0.27240   0.66798   0.00000  Uiso   1.00
Li49   Li    0.40945   0.64329   0.03614   0.00000  Uiso   1.00
Li50   Li    0.24920   0.64005   0.53812   0.00000  Uiso   1.00
Li51   Li    0.23513   0.93620   0.85949   0.00000  Uiso   1.00
Li52   Li    0.15901   0.88545   0.54209   0.00000  Uiso   1.00
Li53   Li    0.48417   0.69557   0.35725   0.00000  Uiso   1.00
Li54   Li    0.49590   0.88806   0.03902   0.00000  Uiso   1.00
Li55   Li    0.17421   0.69107   0.86000   0.00000  Uiso   1.00
Li56   Li    0.41932   0.93872   0.35463   0.00000  Uiso   1.00
Si57   Si    0.23949   0.79720   0.18492   0.00000  Uiso   1.00
Si58   Si    0.41535   0.79738   0.68297   0.00000  Uiso   1.00
Ge59   Ge    0.49186   0.54747   0.67716   0.00000  Uiso   1.00
Ge60   Ge    0.16521   0.54732   0.17989   0.00000  Uiso   1.00
S61    S     0.25550   0.56833   0.00166   0.00000  Uiso   1.00
S62    S     0.00635   0.52443   0.16106   0.00000  Uiso   1.00
S63    S     0.17439   0.67665   0.31256   0.00000  Uiso   1.00
S64    S     0.40440   0.57096   0.49713   0.00000  Uiso   1.00
S65    S     0.48300   0.67749   0.80844   0.00000  Uiso   1.00
S66    S     0.39099   0.77504   0.16659   0.00000  Uiso   1.00
S67    S     0.15055   0.52212   0.66434   0.00000  Uiso   1.00
S68    S     0.23006   0.91801   0.31305   0.00000  Uiso   1.00
S69    S     0.42393   0.91882   0.80977   0.00000  Uiso   1.00
S70    S     0.15533   0.81815   0.01350   0.00000  Uiso   1.00
S71    S     0.49795   0.82146   0.51033   0.00000  Uiso   1.00
S72    S     0.26393   0.77240   0.66798   0.00000  Uiso   1.00
Li73   Li    0.90945   0.64329   0.03614   0.00000  Uiso   1.00
Li74   Li    0.74920   0.64005   0.53812   0.00000  Uiso   1.00
Li75   Li    0.73513   0.93620   0.85949   0.00000  Uiso   1.00
Li76   Li    0.65901   0.88545   0.54209   0.00000  Uiso   1.00
Li77   Li    0.98417   0.69557   0.35725   0.00000  Uiso   1.00
Li78   Li    0.99590   0.88806   0.03902   0.00000  Uiso   1.00
Li79   Li    0.67421   0.69107   0.86000   0.00000  Uiso   1.00
Li80   Li    0.91932   0.93872   0.35463   0.00000  Uiso   1.00
Si81   Si    0.73949   0.79720   0.18492   0.00000  Uiso   1.00
Si82   Si    0.91535   0.79738   0.68297   0.00000  Uiso   1.00
Ge83   Ge    0.99186   0.54747   0.67716   0.00000  Uiso   1.00
Ge84   Ge    0.66521   0.54732   0.17989   0.00000  Uiso   1.00
S85    S     0.75550   0.56833   0.00166   0.00000  Uiso   1.00
S86    S     0.50635   0.52443   0.16106   0.00000  Uiso   1.00
S87    S     0.67439   0.67665   0.31256   0.00000  Uiso   1.00
S88    S     0.90440   0.57096   0.49713   0.00000  Uiso   1.00
S89    S     0.98300   0.67749   0.80844   0.00000  Uiso   1.00
S90    S     0.89099   0.77504   0.16659   0.00000  Uiso   1.00
S91    S     0.65055   0.52212   0.66434   0.00000  Uiso   1.00
S92    S     0.73006   0.91801   0.31305   0.00000  Uiso   1.00
S93    S     0.92393   0.91882   0.80977   0.00000  Uiso   1.00
S94    S     0.65533   0.81815   0.01350   0.00000  Uiso   1.00
S95    S     0.99795   0.82146   0.51033   0.00000  Uiso   1.00
S96    S     0.76393   0.77240   0.66798   0.00000  Uiso   1.00
