data_Na3YCl6_contcar_sym
_audit_creation_date              2025-07-02
_audit_creation_method            'Materials Studio'
_symmetry_space_group_name_H-M    'P21/C'
_symmetry_Int_Tables_number       14
_symmetry_cell_setting            monoclinic
loop_
_symmetry_equiv_pos_as_xyz
  x,y,z
  -x,y+1/2,-z+1/2
  -x,-y,-z
  x,-y+1/2,z+1/2
_cell_length_a                    10.3513
_cell_length_b                    7.2962
_cell_length_c                    12.3721
_cell_angle_alpha                 90.0000
_cell_angle_beta                  146.3778
_cell_angle_gamma                 90.0000
loop_
_atom_site_label
_atom_site_type_symbol
_atom_site_fract_x
_atom_site_fract_y
_atom_site_fract_z
_atom_site_U_iso_or_equiv
_atom_site_adp_type
_atom_site_occupancy
Na0    Na   -0.21133   0.41859  -0.46650   0.00000  Uiso   1.00
Cl8    Cl   -0.11658   0.18340  -0.18775   0.00000  Uiso   1.00
Cl12   Cl    0.59025   0.43690  -0.14506   0.00000  Uiso   1.00
Cl16   Cl   -0.24615   0.80307  -0.82593   0.00000  Uiso   1.00
Na4    Na    0.00000   0.50000   0.00000   0.00000  Uiso   1.00
Y6     Y     0.50000   0.50000   0.00000   0.00000  Uiso   1.00
