# generated using pymatgen
data_Na3YCl6
_symmetry_space_group_name_H-M   'P 1'
_cell_length_a   8.48833677
_cell_length_b   8.44040940
_cell_length_c   7.89766974
_cell_angle_alpha   86.36169938
_cell_angle_beta   93.66277407
_cell_angle_gamma   91.60120623
_symmetry_Int_Tables_number   1
_chemical_formula_structural   Na3YCl6
_chemical_formula_sum   'Na6 Y2 Cl12'
_cell_volume   563.37283351
_cell_formula_units_Z   2
loop_
 _symmetry_equiv_pos_site_id
 _symmetry_equiv_pos_as_xyz
  1  'x, y, z'
loop_
 _atom_site_type_symbol
 _atom_site_label
 _atom_site_symmetry_multiplicity
 _atom_site_fract_x
 _atom_site_fract_y
 _atom_site_fract_z
 _atom_site_occupancy
  Na  Na0  1  0.92652329  0.64504815  0.94550198  1
  Na  Na1  1  0.78698428  0.49977740  0.44036302  1
  Na  Na2  1  0.32410388  0.30924345  0.77034930  1
  Na  Na3  1  0.10103507  0.13877891  0.26220889  1
  Na  Na4  1  0.45033555  0.79030339  0.63813830  1
  Na  Na5  1  0.60285001  -0.00304227  0.13955140  1
  Y  Y6  1  0.85160801  0.07622276  0.69784523  1
  Y  Y7  1  0.35350804  0.56793928  0.19646296  1
  Cl  Cl8  1  0.05667639  0.49451003  0.25615312  1
  Cl  Cl9  1  0.25711377  0.63648501  0.87409777  1
  Cl  Cl10  1  0.77094893  0.16973747  0.37766116  1
  Cl  Cl11  1  0.37374196  0.26815853  0.11740690  1
  Cl  Cl12  1  0.14568962  0.08206403  0.60984204  1
  Cl  Cl13  1  0.88389525  0.37270300  0.76997984  1
  Cl  Cl14  1  0.46187101  0.48311392  0.51213324  1
  Cl  Cl15  1  0.33800185  0.85929395  0.29933004  1
  Cl  Cl16  1  0.93609638  0.97144148  0.01413313  1
  Cl  Cl17  1  0.79366503  0.77680128  0.62356740  1
  Cl  Cl18  1  0.55283330  0.06292287  0.79024559  1
  Cl  Cl19  1  0.64752937  0.64775036  0.12696571  1
