data_2_2x2x1_contcar
_audit_creation_date              2023-03-27
_audit_creation_method            'Materials Studio'
_symmetry_space_group_name_H-M    'P1'
_symmetry_Int_Tables_number       1
_symmetry_cell_setting            triclinic
loop_
_symmetry_equiv_pos_as_xyz
  x,y,z
_cell_length_a                    13.6099
_cell_length_b                    14.0244
_cell_length_c                    10.1800
_cell_angle_alpha                 84.8941
_cell_angle_beta                  90.2693
_cell_angle_gamma                 89.9623
loop_
_atom_site_label
_atom_site_type_symbol
_atom_site_fract_x
_atom_site_fract_y
_atom_site_fract_z
_atom_site_U_iso_or_equiv
_atom_site_adp_type
_atom_site_occupancy
Li1    Li    0.40883   0.13986   0.03586   0.00000  Uiso   1.00
Li2    Li    0.24765   0.13995   0.54544   0.00000  Uiso   1.00
Li3    Li    0.23401   0.43709   0.85604   0.00000  Uiso   1.00
Li4    Li    0.15949   0.38823   0.53735   0.00000  Uiso   1.00
Li5    Li    0.48561   0.18949   0.35330   0.00000  Uiso   1.00
Li6    Li    0.49526   0.39142   0.04334   0.00000  Uiso   1.00
Li7    Li    0.17219   0.19472   0.86681   0.00000  Uiso   1.00
Li8    Li    0.42214   0.44662   0.36510   0.00000  Uiso   1.00
Si9    Si    0.24248   0.29763   0.18458   0.00000  Uiso   1.00
Si10   Si    0.49421   0.04821   0.68381   0.00000  Uiso   1.00
Ge11   Ge    0.41759   0.29842   0.68090   0.00000  Uiso   1.00
Ge12   Ge    0.16692   0.04778   0.18262   0.00000  Uiso   1.00
S13    S     0.25233   0.06904   0.00102   0.00000  Uiso   1.00
S14    S     0.00720   0.02561   0.17123   0.00000  Uiso   1.00
S15    S     0.17874   0.17725   0.31344   0.00000  Uiso   1.00
S16    S     0.40786   0.07350   0.51449   0.00000  Uiso   1.00
S17    S     0.48740   0.16962   0.81164   0.00000  Uiso   1.00
S18    S     0.39297   0.27346   0.16135   0.00000  Uiso   1.00
S19    S     0.64461   0.02219   0.66325   0.00000  Uiso   1.00
S20    S     0.23633   0.41870   0.31284   0.00000  Uiso   1.00
S21    S     0.42819   0.42822   0.81117   0.00000  Uiso   1.00
S22    S     0.15491   0.32158   0.01616   0.00000  Uiso   1.00
S23    S     0.50228   0.32098   0.49903   0.00000  Uiso   1.00
S24    S     0.25790   0.27449   0.67215   0.00000  Uiso   1.00
Li25   Li    0.90883   0.13986   0.03586   0.00000  Uiso   1.00
Li26   Li    0.74765   0.13995   0.54544   0.00000  Uiso   1.00
Li27   Li    0.73401   0.43709   0.85604   0.00000  Uiso   1.00
Li28   Li    0.65949   0.38823   0.53735   0.00000  Uiso   1.00
Li29   Li    0.98561   0.18949   0.35330   0.00000  Uiso   1.00
Li30   Li    0.99526   0.39142   0.04334   0.00000  Uiso   1.00
Li31   Li    0.67219   0.19472   0.86681   0.00000  Uiso   1.00
Li32   Li    0.92214   0.44662   0.36510   0.00000  Uiso   1.00
Si33   Si    0.74248   0.29763   0.18458   0.00000  Uiso   1.00
Si34   Si    0.99421   0.04821   0.68381   0.00000  Uiso   1.00
Ge35   Ge    0.91759   0.29842   0.68090   0.00000  Uiso   1.00
Ge36   Ge    0.66692   0.04778   0.18262   0.00000  Uiso   1.00
S37    S     0.75233   0.06904   0.00102   0.00000  Uiso   1.00
S38    S     0.50720   0.02561   0.17123   0.00000  Uiso   1.00
S39    S     0.67874   0.17725   0.31344   0.00000  Uiso   1.00
S40    S     0.90786   0.07350   0.51449   0.00000  Uiso   1.00
S41    S     0.98740   0.16962   0.81164   0.00000  Uiso   1.00
S42    S     0.89297   0.27346   0.16135   0.00000  Uiso   1.00
S43    S     1.14461   0.02219   0.66325   0.00000  Uiso   1.00
S44    S     0.73633   0.41870   0.31284   0.00000  Uiso   1.00
S45    S     0.92819   0.42822   0.81117   0.00000  Uiso   1.00
S46    S     0.65491   0.32158   0.01616   0.00000  Uiso   1.00
S47    S     1.00228   0.32098   0.49903   0.00000  Uiso   1.00
S48    S     0.75790   0.27449   0.67215   0.00000  Uiso   1.00
Li49   Li    0.40883   0.63986   0.03586   0.00000  Uiso   1.00
Li50   Li    0.24765   0.63995   0.54544   0.00000  Uiso   1.00
Li51   Li    0.23401   0.93709   0.85604   0.00000  Uiso   1.00
Li52   Li    0.15949   0.88823   0.53735   0.00000  Uiso   1.00
Li53   Li    0.48561   0.68949   0.35330   0.00000  Uiso   1.00
Li54   Li    0.49526   0.89142   0.04334   0.00000  Uiso   1.00
Li55   Li    0.17219   0.69472   0.86681   0.00000  Uiso   1.00
Li56   Li    0.42214   0.94662   0.36510   0.00000  Uiso   1.00
Si57   Si    0.24248   0.79763   0.18458   0.00000  Uiso   1.00
Si58   Si    0.49421   0.54821   0.68381   0.00000  Uiso   1.00
Ge59   Ge    0.41759   0.79842   0.68090   0.00000  Uiso   1.00
Ge60   Ge    0.16692   0.54778   0.18262   0.00000  Uiso   1.00
S61    S     0.25233   0.56904   0.00102   0.00000  Uiso   1.00
S62    S     0.00720   0.52561   0.17123   0.00000  Uiso   1.00
S63    S     0.17874   0.67725   0.31344   0.00000  Uiso   1.00
S64    S     0.40786   0.57350   0.51449   0.00000  Uiso   1.00
S65    S     0.48740   0.66962   0.81164   0.00000  Uiso   1.00
S66    S     0.39297   0.77346   0.16135   0.00000  Uiso   1.00
S67    S     0.64461   0.52219   0.66325   0.00000  Uiso   1.00
S68    S     0.23633   0.91870   0.31284   0.00000  Uiso   1.00
S69    S     0.42819   0.92822   0.81117   0.00000  Uiso   1.00
S70    S     0.15491   0.82158   0.01616   0.00000  Uiso   1.00
S71    S     0.50228   0.82098   0.49903   0.00000  Uiso   1.00
S72    S     0.25790   0.77449   0.67215   0.00000  Uiso   1.00
Li73   Li    0.90883   0.63986   0.03586   0.00000  Uiso   1.00
Li74   Li    0.74765   0.63995   0.54544   0.00000  Uiso   1.00
Li75   Li    0.73401   0.93709   0.85604   0.00000  Uiso   1.00
Li76   Li    0.65949   0.88823   0.53735   0.00000  Uiso   1.00
Li77   Li    0.98561   0.68949   0.35330   0.00000  Uiso   1.00
Li78   Li    0.99526   0.89142   0.04334   0.00000  Uiso   1.00
Li79   Li    0.67219   0.69472   0.86681   0.00000  Uiso   1.00
Li80   Li    0.92214   0.94662   0.36510   0.00000  Uiso   1.00
Si81   Si    0.74248   0.79763   0.18458   0.00000  Uiso   1.00
Si82   Si    0.99421   0.54821   0.68381   0.00000  Uiso   1.00
Ge83   Ge    0.91759   0.79842   0.68090   0.00000  Uiso   1.00
Ge84   Ge    0.66692   0.54778   0.18262   0.00000  Uiso   1.00
S85    S     0.75233   0.56904   0.00102   0.00000  Uiso   1.00
S86    S     0.50720   0.52561   0.17123   0.00000  Uiso   1.00
S87    S     0.67874   0.67725   0.31344   0.00000  Uiso   1.00
S88    S     0.90786   0.57350   0.51449   0.00000  Uiso   1.00
S89    S     0.98740   0.66962   0.81164   0.00000  Uiso   1.00
S90    S     0.89297   0.77346   0.16135   0.00000  Uiso   1.00
S91    S     1.14461   0.52219   0.66325   0.00000  Uiso   1.00
S92    S     0.73633   0.91870   0.31284   0.00000  Uiso   1.00
S93    S     0.92819   0.92822   0.81117   0.00000  Uiso   1.00
S94    S     0.65491   0.82158   0.01616   0.00000  Uiso   1.00
S95    S     1.00228   0.82098   0.49903   0.00000  Uiso   1.00
S96    S     0.75790   0.77449   0.67215   0.00000  Uiso   1.00
loop_
_geom_bond_atom_site_label_1
_geom_bond_atom_site_label_2
_geom_bond_distance
_geom_bond_site_symmetry_2
_ccdc_geom_bond_type
Si9    S15     2.223   .     S
Si9    S18     2.094   .     S
Si9    S20     2.234   .     S
Si9    S22     2.086   .     S
Si10   S16     2.086   .     S
Si10   S17     2.235   .     S
Si10   S19     2.094   .     S
Si10   S69     2.224   1_545 S
Ge11   S17     2.344   .     S
Ge11   S21     2.350   .     S
Ge11   S23     2.185   .     S
Ge11   S24     2.202   .     S
Ge12   S13     2.186   .     S
Ge12   S14     2.200   .     S
Ge12   S15     2.350   .     S
Ge12   S68     2.342   1_545 S
S20    Ge60    2.342   .     S
S21    Si58    2.224   .     S
Si33   S39     2.223   .     S
Si33   S42     2.094   .     S
Si33   S44     2.234   .     S
Si33   S46     2.086   .     S
Si34   S40     2.086   .     S
Si34   S41     2.235   .     S
Si34   S43     2.094   .     S
Si34   S93     2.224   1_545 S
Ge35   S41     2.344   .     S
Ge35   S45     2.350   .     S
Ge35   S47     2.185   .     S
Ge35   S48     2.202   .     S
Ge36   S37     2.186   .     S
Ge36   S38     2.200   .     S
Ge36   S39     2.350   .     S
Ge36   S92     2.342   1_545 S
S44    Ge84    2.342   .     S
S45    Si82    2.224   .     S
Si57   S63     2.223   .     S
Si57   S66     2.094   .     S
Si57   S68     2.234   .     S
Si57   S70     2.086   .     S
Si58   S64     2.086   .     S
Si58   S65     2.235   .     S
Si58   S67     2.094   .     S
Ge59   S65     2.344   .     S
Ge59   S69     2.350   .     S
Ge59   S71     2.185   .     S
Ge59   S72     2.202   .     S
Ge60   S61     2.186   .     S
Ge60   S62     2.200   .     S
Ge60   S63     2.350   .     S
S68    Ge12    2.342   1_565 S
S69    Si10    2.224   1_565 S
Si81   S87     2.223   .     S
Si81   S90     2.094   .     S
Si81   S92     2.234   .     S
Si81   S94     2.086   .     S
Si82   S88     2.086   .     S
Si82   S89     2.235   .     S
Si82   S91     2.094   .     S
Ge83   S89     2.344   .     S
Ge83   S93     2.350   .     S
Ge83   S95     2.185   .     S
Ge83   S96     2.202   .     S
Ge84   S85     2.186   .     S
Ge84   S86     2.200   .     S
Ge84   S87     2.350   .     S
S92    Ge36    2.342   1_565 S
S93    Si34    2.224   1_565 S
