# generated using pymatgen
data_Li4SiGeS6
_symmetry_space_group_name_H-M   'P 1'
_cell_length_a   6.80496046
_cell_length_b   7.01220625
_cell_length_c   10.18000979
_cell_angle_alpha   84.89409796
_cell_angle_beta   90.26931933
_cell_angle_gamma   89.96228422
_symmetry_Int_Tables_number   1
_chemical_formula_structural   Li4SiGeS6
_chemical_formula_sum   'Li8 Si2 Ge2 S12'
_cell_volume   483.83433066
_cell_formula_units_Z   2
loop_
 _symmetry_equiv_pos_site_id
 _symmetry_equiv_pos_as_xyz
  1  'x, y, z'
loop_
 _atom_site_type_symbol
 _atom_site_label
 _atom_site_symmetry_multiplicity
 _atom_site_fract_x
 _atom_site_fract_y
 _atom_site_fract_z
 _atom_site_occupancy
  Li  Li0  1  0.81765827  0.27971068  0.03586154  1
  Li  Li1  1  0.49530312  0.27989946  0.54543702  1
  Li  Li2  1  0.46801137  0.87417654  0.85604268  1
  Li  Li3  1  0.31897904  0.77646720  0.53734776  1
  Li  Li4  1  0.97122362  0.37897715  0.35329512  1
  Li  Li5  1  0.99052336  0.78284995  0.04333587  1
  Li  Li6  1  0.34437608  0.38943849  0.86680771  1
  Li  Li7  1  0.84427676  0.89323639  0.36509731  1
  Si  Si8  1  0.48495452  0.59525376  0.18458345  1
  Si  Si9  1  0.98842267  0.09642208  0.68381314  1
  Ge  Ge10  1  0.83517846  0.59684099  0.68089627  1
  Ge  Ge11  1  0.33384284  0.09556979  0.18262414  1
  S  S12  1  0.50465286  0.13807264  0.00102352  1
  S  S13  1  0.01439838  0.05122412  0.17123310  1
  S  S14  1  0.35747102  0.35449727  0.31343812  1
  S  S15  1  0.81571379  0.14699632  0.51448675  1
  S  S16  1  0.97479170  0.33924986  0.81163508  1
  S  S17  1  0.78594780  0.54691165  0.16134567  1
  S  S18  1  0.28921246  0.04437376  0.66324772  1
  S  S19  1  0.47265221  0.83740499  0.31283739  1
  S  S20  1  0.85637773  0.85644114  0.81117017  1
  S  S21  1  0.30982377  0.64315806  0.01615883  1
  S  S22  1  0.00455345  0.64195750  0.49903155  1
  S  S23  1  0.51580582  0.54897032  0.67215017  1
