data_83_contcar
_audit_creation_date              2024-02-08
_audit_creation_method            'Materials Studio'
_symmetry_space_group_name_H-M    'P1'
_symmetry_Int_Tables_number       1
_symmetry_cell_setting            triclinic
loop_
_symmetry_equiv_pos_as_xyz
  x,y,z
_cell_length_a                    13.4235
_cell_length_b                    11.8055
_cell_length_c                    14.1814
_cell_angle_alpha                 90.0000
_cell_angle_beta                  113.5590
_cell_angle_gamma                 90.0000
loop_
_atom_site_label
_atom_site_type_symbol
_atom_site_fract_x
_atom_site_fract_y
_atom_site_fract_z
_atom_site_U_iso_or_equiv
_atom_site_adp_type
_atom_site_occupancy
Li1    Li    0.49728   0.23140   0.92266   0.00000  Uiso   1.00
Li2    Li    0.44643   0.58700   0.82080   0.00000  Uiso   1.00
Si3    Si    0.30593   0.40682   0.67606   0.00000  Uiso   1.00
S4     S     0.15897   0.25986   0.88678   0.00000  Uiso   1.00
S5     S     0.36696   0.40380   0.84688   0.00000  Uiso   1.00
S6     S     0.35816   0.55793   0.63391   0.00000  Uiso   1.00
Li7    Li    0.24728   0.73140   0.92266   0.00000  Uiso   1.00
Li8    Li    0.19643   0.08700   0.82080   0.00000  Uiso   1.00
Si9    Si    0.05593   0.90682   0.67606   0.00000  Uiso   1.00
S10    S    -0.09103   0.75986   0.88678   0.00000  Uiso   1.00
S11    S     0.11696   0.90380   0.84688   0.00000  Uiso   1.00
S12    S     0.10816   1.05793   0.63391   0.00000  Uiso   1.00
Li13   Li    0.00272   0.23140   0.57734   0.00000  Uiso   1.00
Li14   Li    0.05357   0.58700   0.67920   0.00000  Uiso   1.00
Si15   Si    0.19407   0.40682   0.82394   0.00000  Uiso   1.00
S16    S     0.34103   0.25986   0.61322   0.00000  Uiso   1.00
S17    S     0.13304   0.40380   0.65312   0.00000  Uiso   1.00
S18    S     0.14184   0.55793   0.86609   0.00000  Uiso   1.00
Li19   Li    0.25272   0.73140   0.57734   0.00000  Uiso   1.00
Li20   Li    0.30357   0.08700   0.67920   0.00000  Uiso   1.00
Si21   Si   -0.05593   0.90682   0.82394   0.00000  Uiso   1.00
S22    S     0.09103   0.75986   0.61322   0.00000  Uiso   1.00
S23    S    -0.11696   0.90380   0.65312   0.00000  Uiso   1.00
S24    S    -0.10816   1.05793   0.86609   0.00000  Uiso   1.00
Li25   Li    0.00272   0.76860   0.07734   0.00000  Uiso   1.00
Li26   Li    0.05357   0.41300   0.17920   0.00000  Uiso   1.00
Si27   Si    0.19407   0.59318   0.32394   0.00000  Uiso   1.00
S28    S     0.34103   0.74014   0.11322   0.00000  Uiso   1.00
S29    S     0.13304   0.59620   0.15312   0.00000  Uiso   1.00
S30    S     0.14184   0.44207   0.36609   0.00000  Uiso   1.00
Li31   Li    0.25272   0.26860   0.07734   0.00000  Uiso   1.00
Li32   Li    0.30357   0.91300   0.17920   0.00000  Uiso   1.00
Si33   Si   -0.05593   0.09318   0.32394   0.00000  Uiso   1.00
S34    S     0.09103   0.24014   0.11322   0.00000  Uiso   1.00
S35    S    -0.11696   0.09620   0.15312   0.00000  Uiso   1.00
S36    S    -0.10816  -0.05793   0.36609   0.00000  Uiso   1.00
Li37   Li    0.49728   0.76860   0.42266   0.00000  Uiso   1.00
Li38   Li    0.44643   0.41300   0.32080   0.00000  Uiso   1.00
Si39   Si    0.30593   0.59318   0.17606   0.00000  Uiso   1.00
S40    S     0.15897   0.74014   0.38678   0.00000  Uiso   1.00
S41    S     0.36696   0.59620   0.34688   0.00000  Uiso   1.00
S42    S     0.35816   0.44207   0.13391   0.00000  Uiso   1.00
Li43   Li    0.24728   0.26860   0.42266   0.00000  Uiso   1.00
Li44   Li    0.19643   0.91300   0.32080   0.00000  Uiso   1.00
Si45   Si    0.05593   0.09318   0.17606   0.00000  Uiso   1.00
S46    S    -0.09103   0.24014   0.38678   0.00000  Uiso   1.00
S47    S     0.11696   0.09620   0.34688   0.00000  Uiso   1.00
S48    S     0.10816  -0.05793   0.13391   0.00000  Uiso   1.00
Li49   Li    0.99728   0.23140   0.92266   0.00000  Uiso   1.00
Li50   Li    0.94643   0.58700   0.82080   0.00000  Uiso   1.00
Si51   Si    0.80593   0.40682   0.67606   0.00000  Uiso   1.00
S52    S     0.65897   0.25986   0.88678   0.00000  Uiso   1.00
S53    S     0.86696   0.40380   0.84688   0.00000  Uiso   1.00
S54    S     0.85816   0.55793   0.63391   0.00000  Uiso   1.00
Li55   Li    0.74728   0.73140   0.92266   0.00000  Uiso   1.00
Li56   Li    0.69643   0.08700   0.82080   0.00000  Uiso   1.00
Si57   Si    0.55593   0.90682   0.67606   0.00000  Uiso   1.00
S58    S     0.40897   0.75986   0.88678   0.00000  Uiso   1.00
S59    S     0.61696   0.90380   0.84688   0.00000  Uiso   1.00
S60    S     0.60816   1.05793   0.63391   0.00000  Uiso   1.00
Li61   Li    0.50272   0.23140   0.57734   0.00000  Uiso   1.00
Li62   Li    0.55357   0.58700   0.67920   0.00000  Uiso   1.00
Si63   Si    0.69407   0.40682   0.82394   0.00000  Uiso   1.00
S64    S     0.84103   0.25986   0.61322   0.00000  Uiso   1.00
S65    S     0.63304   0.40380   0.65312   0.00000  Uiso   1.00
S66    S     0.64184   0.55793   0.86609   0.00000  Uiso   1.00
Li67   Li    0.75272   0.73140   0.57734   0.00000  Uiso   1.00
Li68   Li    0.80357   0.08700   0.67920   0.00000  Uiso   1.00
Si69   Si    0.44407   0.90682   0.82394   0.00000  Uiso   1.00
S70    S     0.59103   0.75986   0.61322   0.00000  Uiso   1.00
S71    S     0.38304   0.90380   0.65312   0.00000  Uiso   1.00
S72    S     0.39184   1.05793   0.86609   0.00000  Uiso   1.00
Li73   Li    0.50272   0.76860   0.07734   0.00000  Uiso   1.00
Li74   Li    0.55357   0.41300   0.17920   0.00000  Uiso   1.00
Si75   Si    0.69407   0.59318   0.32394   0.00000  Uiso   1.00
S76    S     0.84103   0.74014   0.11322   0.00000  Uiso   1.00
S77    S     0.63304   0.59620   0.15312   0.00000  Uiso   1.00
S78    S     0.64184   0.44207   0.36609   0.00000  Uiso   1.00
Li79   Li    0.75272   0.26860   0.07734   0.00000  Uiso   1.00
Li80   Li    0.80357   0.91300   0.17920   0.00000  Uiso   1.00
Si81   Si    0.44407   0.09318   0.32394   0.00000  Uiso   1.00
S82    S     0.59103   0.24014   0.11322   0.00000  Uiso   1.00
S83    S     0.38304   0.09620   0.15312   0.00000  Uiso   1.00
S84    S     0.39184  -0.05793   0.36609   0.00000  Uiso   1.00
Li85   Li    0.99728   0.76860   0.42266   0.00000  Uiso   1.00
Li86   Li    0.94643   0.41300   0.32080   0.00000  Uiso   1.00
Si87   Si    0.80593   0.59318   0.17606   0.00000  Uiso   1.00
S88    S     0.65897   0.74014   0.38678   0.00000  Uiso   1.00
S89    S     0.86696   0.59620   0.34688   0.00000  Uiso   1.00
S90    S     0.85816   0.44207   0.13391   0.00000  Uiso   1.00
Li91   Li    0.74728   0.26860   0.42266   0.00000  Uiso   1.00
Li92   Li    0.69643   0.91300   0.32080   0.00000  Uiso   1.00
Si93   Si    0.55593   0.09318   0.17606   0.00000  Uiso   1.00
S94    S     0.40897   0.24014   0.38678   0.00000  Uiso   1.00
S95    S     0.61696   0.09620   0.34688   0.00000  Uiso   1.00
S96    S     0.60816  -0.05793   0.13391   0.00000  Uiso   1.00
loop_
_geom_bond_atom_site_label_1
_geom_bond_atom_site_label_2
_geom_bond_distance
_geom_bond_site_symmetry_2
_ccdc_geom_bond_type
Si3    S5      2.226   .     S
Si3    S6      2.090   .     S
Si3    S17     2.211   .     S
Si3    S16     2.088   .     S
S4     Si15    2.088   .     S
S5     Si15    2.211   .     S
Si9    S11     2.226   .     S
Si9    S12     2.090   .     S
Si9    S23     2.211   .     S
Si9    S22     2.088   .     S
S10    Si21    2.088   .     S
S11    Si21    2.211   .     S
Si15   S17     2.226   .     S
Si15   S18     2.090   .     S
Si21   S23     2.226   .     S
Si21   S24     2.090   .     S
Si27   S29     2.226   .     S
Si27   S30     2.090   .     S
Si27   S41     2.211   .     S
Si27   S40     2.088   .     S
S28    Si39    2.088   .     S
S29    Si39    2.211   .     S
Si33   S35     2.226   .     S
Si33   S36     2.090   .     S
Si33   S47     2.211   .     S
Si33   S46     2.088   .     S
S34    Si45    2.088   .     S
S35    Si45    2.211   .     S
Si39   S41     2.226   .     S
Si39   S42     2.090   .     S
Si45   S47     2.226   .     S
Si45   S48     2.090   .     S
Si51   S53     2.226   .     S
Si51   S54     2.090   .     S
Si51   S65     2.211   .     S
Si51   S64     2.088   .     S
S52    Si63    2.088   .     S
S53    Si63    2.211   .     S
Si57   S59     2.226   .     S
Si57   S60     2.090   .     S
Si57   S71     2.211   .     S
Si57   S70     2.088   .     S
S58    Si69    2.088   .     S
S59    Si69    2.211   .     S
Si63   S65     2.226   .     S
Si63   S66     2.090   .     S
Si69   S71     2.226   .     S
Si69   S72     2.090   .     S
Si75   S77     2.226   .     S
Si75   S78     2.090   .     S
Si75   S89     2.211   .     S
Si75   S88     2.088   .     S
S76    Si87    2.088   .     S
S77    Si87    2.211   .     S
Si81   S83     2.226   .     S
Si81   S84     2.090   .     S
Si81   S95     2.211   .     S
Si81   S94     2.088   .     S
S82    Si93    2.088   .     S
S83    Si93    2.211   .     S
Si87   S89     2.226   .     S
Si87   S90     2.090   .     S
Si93   S95     2.226   .     S
Si93   S96     2.090   .     S
