# generated using pymatgen
data_Li2SiS3
_symmetry_space_group_name_H-M   'P 1'
_cell_length_a   6.71176017
_cell_length_b   6.78880019
_cell_length_c   13.04120266
_cell_angle_alpha   87.74012774
_cell_angle_beta   85.41037452
_cell_angle_gamma   60.39850512
_symmetry_Int_Tables_number   1
_chemical_formula_structural   Li2SiS3
_chemical_formula_sum   'Li8 Si4 S12'
_cell_volume   515.00667855
_cell_formula_units_Z   4
loop_
 _symmetry_equiv_pos_site_id
 _symmetry_equiv_pos_as_xyz
  1  'x, y, z'
loop_
 _atom_site_type_symbol
 _atom_site_label
 _atom_site_symmetry_multiplicity
 _atom_site_fract_x
 _atom_site_fract_y
 _atom_site_fract_z
 _atom_site_occupancy
  Li  Li0  1  0.71302793  -0.00392278  0.11139906  1
  Li  Li1  1  0.32046207  0.07111978  0.95579894  1
  Li  Li2  1  0.35788537  0.70779684  0.21305004  1
  Li  Li3  1  0.67560563  0.35940016  0.85414796  1
  Li  Li4  1  0.35649263  -0.00326847  0.45671661  1
  Li  Li5  1  0.67699837  0.07046547  0.61048239  1
  Li  Li6  1  0.00220122  0.70740827  0.35465491  1
  Li  Li7  1  0.03128878  0.35978773  0.71254309  1
  Si  Si8  1  0.67403078  0.34726851  0.35739210  1
  Si  Si9  1  0.35945922  0.71992749  0.70980590  1
  Si  Si10  1  0.04564330  0.34721320  0.20951439  1
  Si  Si11  1  -0.01215130  0.71998280  0.85768361  1
  S  S12  1  0.32505427  0.05326045  0.14647762  1
  S  S13  1  0.70843673  0.01393655  0.92072038  1
  S  S14  1  0.72558891  0.34174854  0.18659637  1
  S  S15  1  0.30790109  0.72544846  0.88060163  1
  S  S16  1  0.37684355  0.64967553  0.39975058  1
  S  S17  1  0.65664545  0.41752247  0.66744742  1
  S  S18  1  0.04189015  0.64923550  0.16757486  1
  S  S19  1  -0.00839815  0.41796250  0.89962314  1
  S  S20  1  0.00020654  0.34065503  0.38035237  1
  S  S21  1  0.03328246  0.72654297  0.68684663  1
  S  S22  1  0.68729976  0.05339269  0.42002877  1
  S  S23  1  0.34619024  0.01380331  0.64716923  1
