# generated using pymatgen
data_Li2SiS3
_symmetry_space_group_name_H-M   'P 1'
_cell_length_a   11.65285738
_cell_length_b   6.72490041
_cell_length_c   6.74412642
_cell_angle_alpha   90.59427903
_cell_angle_beta   86.03181845
_cell_angle_gamma   87.82376010
_symmetry_Int_Tables_number   1
_chemical_formula_structural   Li2SiS3
_chemical_formula_sum   'Li8 Si4 S12'
_cell_volume   526.80671373
_cell_formula_units_Z   4
loop_
 _symmetry_equiv_pos_site_id
 _symmetry_equiv_pos_as_xyz
  1  'x, y, z'
loop_
 _atom_site_type_symbol
 _atom_site_label
 _atom_site_symmetry_multiplicity
 _atom_site_fract_x
 _atom_site_fract_y
 _atom_site_fract_z
 _atom_site_occupancy
  Li  Li0  1  0.39298024  0.91155406  0.12845473  1
  Li  Li1  1  0.22979432  0.78098923  0.68127947  1
  Li  Li2  1  0.37667590  0.33210340  0.89303885  1
  Li  Li3  1  0.53676839  0.19121484  0.41802892  1
  Li  Li4  1  0.89303472  0.41163743  0.12841772  1
  Li  Li5  1  0.72985559  0.28089081  0.68115006  1
  Li  Li6  1  0.87661765  0.83213174  0.89305023  1
  Li  Li7  1  0.03671260  0.69127873  0.41807451  1
  Si  Si8  1  0.71987836  0.63956726  0.39737770  1
  Si  Si9  1  0.54238060  0.82695020  0.69401330  1
  Si  Si10  1  0.21991277  0.13958426  0.39740963  1
  Si  Si11  1  0.04241353  0.32702916  0.69403692  1
  S  S12  1  0.21711652  0.83794954  0.32266687  1
  S  S13  1  0.40377815  0.68876991  0.84123288  1
  S  S14  1  0.36175766  0.27204265  0.25523570  1
  S  S15  1  0.20972134  0.17142573  0.72637779  1
  S  S16  1  0.05356381  0.29877707  0.36911691  1
  S  S17  1  0.54790099  0.12713478  0.78006401  1
  S  S18  1  0.71713351  0.33794340  0.32255068  1
  S  S19  1  0.90381004  0.18876231  0.84121777  1
  S  S20  1  0.86169419  0.77212033  0.25525538  1
  S  S21  1  0.70968002  0.67129818  0.72636007  1
  S  S22  1  0.55348454  0.79862797  0.36907689  1
  S  S23  1  0.04783458  0.62719103  0.78019100  1
