data_116_contcar
_audit_creation_date              2024-02-20
_audit_creation_method            'Materials Studio'
_symmetry_space_group_name_H-M    'P1'
_symmetry_Int_Tables_number       1
_symmetry_cell_setting            triclinic
loop_
_symmetry_equiv_pos_as_xyz
  x,y,z
_cell_length_a                    11.6529
_cell_length_b                    13.4498
_cell_length_c                    13.4883
_cell_angle_alpha                 90.5943
_cell_angle_beta                  86.0318
_cell_angle_gamma                 87.8238
loop_
_atom_site_label
_atom_site_type_symbol
_atom_site_fract_x
_atom_site_fract_y
_atom_site_fract_z
_atom_site_U_iso_or_equiv
_atom_site_adp_type
_atom_site_occupancy
Li1    Li    0.39298   0.45578   0.06423   0.00000  Uiso   1.00
Li2    Li    0.22979   0.39049   0.34064   0.00000  Uiso   1.00
Li3    Li    0.37668   0.16605   0.44652   0.00000  Uiso   1.00
Li4    Li    0.53677   0.09561   0.20901   0.00000  Uiso   1.00
Li5    Li    0.89303   0.20582   0.06421   0.00000  Uiso   1.00
Li6    Li    0.72986   0.14045   0.34058   0.00000  Uiso   1.00
Li7    Li    0.87662   0.41607   0.44653   0.00000  Uiso   1.00
Li8    Li    0.03671   0.34564   0.20904   0.00000  Uiso   1.00
Si9    Si    0.71988   0.31978   0.19869   0.00000  Uiso   1.00
Si10   Si    0.54238   0.41348   0.34701   0.00000  Uiso   1.00
Si11   Si    0.21991   0.06979   0.19870   0.00000  Uiso   1.00
Si12   Si    0.04241   0.16351   0.34702   0.00000  Uiso   1.00
S13    S     0.21712  -0.08103   0.16133   0.00000  Uiso   1.00
S14    S     0.40378   0.34438   0.42062   0.00000  Uiso   1.00
S15    S     0.36176   0.13602   0.12762   0.00000  Uiso   1.00
S16    S     0.20972   0.08571   0.36319   0.00000  Uiso   1.00
S17    S     0.05356   0.14939   0.18456   0.00000  Uiso   1.00
S18    S     0.54790   0.56357   0.39003   0.00000  Uiso   1.00
S19    S     0.71713   0.16897   0.16128   0.00000  Uiso   1.00
S20    S    -0.09619   0.09438   0.42061   0.00000  Uiso   1.00
S21    S     0.86169   0.38606   0.12763   0.00000  Uiso   1.00
S22    S     0.70968   0.33565   0.36318   0.00000  Uiso   1.00
S23    S     0.55348   0.39931   0.18454   0.00000  Uiso   1.00
S24    S     0.04783   0.31360   0.39010   0.00000  Uiso   1.00
Li25   Li    0.39298   0.95578   0.06423   0.00000  Uiso   1.00
Li26   Li    0.22979   0.89049   0.34064   0.00000  Uiso   1.00
Li27   Li    0.37668   0.66605   0.44652   0.00000  Uiso   1.00
Li28   Li    0.53677   0.59561   0.20901   0.00000  Uiso   1.00
Li29   Li    0.89303   0.70582   0.06421   0.00000  Uiso   1.00
Li30   Li    0.72986   0.64045   0.34058   0.00000  Uiso   1.00
Li31   Li    0.87662   0.91607   0.44653   0.00000  Uiso   1.00
Li32   Li    0.03671   0.84564   0.20904   0.00000  Uiso   1.00
Si33   Si    0.71988   0.81978   0.19869   0.00000  Uiso   1.00
Si34   Si    0.54238   0.91348   0.34701   0.00000  Uiso   1.00
Si35   Si    0.21991   0.56979   0.19870   0.00000  Uiso   1.00
Si36   Si    0.04241   0.66351   0.34702   0.00000  Uiso   1.00
S37    S     0.21712   0.41897   0.16133   0.00000  Uiso   1.00
S38    S     0.40378   0.84438   0.42062   0.00000  Uiso   1.00
S39    S     0.36176   0.63602   0.12762   0.00000  Uiso   1.00
S40    S     0.20972   0.58571   0.36319   0.00000  Uiso   1.00
S41    S     0.05356   0.64939   0.18456   0.00000  Uiso   1.00
S42    S     0.54790   1.06357   0.39003   0.00000  Uiso   1.00
S43    S     0.71713   0.66897   0.16128   0.00000  Uiso   1.00
S44    S    -0.09619   0.59438   0.42061   0.00000  Uiso   1.00
S45    S     0.86169   0.88606   0.12763   0.00000  Uiso   1.00
S46    S     0.70968   0.83565   0.36318   0.00000  Uiso   1.00
S47    S     0.55348   0.89931   0.18454   0.00000  Uiso   1.00
S48    S     0.04783   0.81360   0.39010   0.00000  Uiso   1.00
Li49   Li    0.39298   0.45578   0.56423   0.00000  Uiso   1.00
Li50   Li    0.22979   0.39049   0.84064   0.00000  Uiso   1.00
Li51   Li    0.37668   0.16605   0.94652   0.00000  Uiso   1.00
Li52   Li    0.53677   0.09561   0.70901   0.00000  Uiso   1.00
Li53   Li    0.89303   0.20582   0.56421   0.00000  Uiso   1.00
Li54   Li    0.72986   0.14045   0.84058   0.00000  Uiso   1.00
Li55   Li    0.87662   0.41607   0.94653   0.00000  Uiso   1.00
Li56   Li    0.03671   0.34564   0.70904   0.00000  Uiso   1.00
Si57   Si    0.71988   0.31978   0.69869   0.00000  Uiso   1.00
Si58   Si    0.54238   0.41348   0.84701   0.00000  Uiso   1.00
Si59   Si    0.21991   0.06979   0.69870   0.00000  Uiso   1.00
Si60   Si    0.04241   0.16351   0.84702   0.00000  Uiso   1.00
S61    S     0.21712  -0.08103   0.66133   0.00000  Uiso   1.00
S62    S     0.40378   0.34438   0.92062   0.00000  Uiso   1.00
S63    S     0.36176   0.13602   0.62762   0.00000  Uiso   1.00
S64    S     0.20972   0.08571   0.86319   0.00000  Uiso   1.00
S65    S     0.05356   0.14939   0.68456   0.00000  Uiso   1.00
S66    S     0.54790   0.56357   0.89003   0.00000  Uiso   1.00
S67    S     0.71713   0.16897   0.66128   0.00000  Uiso   1.00
S68    S    -0.09619   0.09438   0.92061   0.00000  Uiso   1.00
S69    S     0.86169   0.38606   0.62763   0.00000  Uiso   1.00
S70    S     0.70968   0.33565   0.86318   0.00000  Uiso   1.00
S71    S     0.55348   0.39931   0.68454   0.00000  Uiso   1.00
S72    S     0.04783   0.31360   0.89010   0.00000  Uiso   1.00
Li73   Li    0.39298   0.95578   0.56423   0.00000  Uiso   1.00
Li74   Li    0.22979   0.89049   0.84064   0.00000  Uiso   1.00
Li75   Li    0.37668   0.66605   0.94652   0.00000  Uiso   1.00
Li76   Li    0.53677   0.59561   0.70901   0.00000  Uiso   1.00
Li77   Li    0.89303   0.70582   0.56421   0.00000  Uiso   1.00
Li78   Li    0.72986   0.64045   0.84058   0.00000  Uiso   1.00
Li79   Li    0.87662   0.91607   0.94653   0.00000  Uiso   1.00
Li80   Li    0.03671   0.84564   0.70904   0.00000  Uiso   1.00
Si81   Si    0.71988   0.81978   0.69869   0.00000  Uiso   1.00
Si82   Si    0.54238   0.91348   0.84701   0.00000  Uiso   1.00
Si83   Si    0.21991   0.56979   0.69870   0.00000  Uiso   1.00
Si84   Si    0.04241   0.66351   0.84702   0.00000  Uiso   1.00
S85    S     0.21712   0.41897   0.66133   0.00000  Uiso   1.00
S86    S     0.40378   0.84438   0.92062   0.00000  Uiso   1.00
S87    S     0.36176   0.63602   0.62762   0.00000  Uiso   1.00
S88    S     0.20972   0.58571   0.86319   0.00000  Uiso   1.00
S89    S     0.05356   0.64939   0.68456   0.00000  Uiso   1.00
S90    S     0.54790   1.06357   0.89003   0.00000  Uiso   1.00
S91    S     0.71713   0.66897   0.66128   0.00000  Uiso   1.00
S92    S    -0.09619   0.59438   0.92061   0.00000  Uiso   1.00
S93    S     0.86169   0.88606   0.62763   0.00000  Uiso   1.00
S94    S     0.70968   0.83565   0.86318   0.00000  Uiso   1.00
S95    S     0.55348   0.89931   0.68454   0.00000  Uiso   1.00
S96    S     0.04783   0.81360   0.89010   0.00000  Uiso   1.00
loop_
_geom_bond_atom_site_label_1
_geom_bond_atom_site_label_2
_geom_bond_distance
_geom_bond_site_symmetry_2
_ccdc_geom_bond_type
Si9    S19     2.087   .     S
Si9    S21     2.087   .     S
Si9    S22     2.221   .     S
Si9    S23     2.200   .     S
Si10   S14     2.090   .     S
Si10   S18     2.099   .     S
Si10   S22     2.203   .     S
Si10   S23     2.192   .     S
Si11   S13     2.087   .     S
Si11   S15     2.087   .     S
Si11   S16     2.221   .     S
Si11   S17     2.200   .     S
Si12   S16     2.203   .     S
Si12   S17     2.192   .     S
Si12   S20     2.090   .     S
Si12   S24     2.099   .     S
Si33   S43     2.087   .     S
Si33   S45     2.087   .     S
Si33   S46     2.221   .     S
Si33   S47     2.200   .     S
Si34   S38     2.090   .     S
Si34   S42     2.099   .     S
Si34   S46     2.203   .     S
Si34   S47     2.192   .     S
Si35   S37     2.087   .     S
Si35   S39     2.087   .     S
Si35   S40     2.221   .     S
Si35   S41     2.200   .     S
Si36   S40     2.203   .     S
Si36   S41     2.192   .     S
Si36   S44     2.090   .     S
Si36   S48     2.099   .     S
Si57   S67     2.087   .     S
Si57   S69     2.087   .     S
Si57   S70     2.221   .     S
Si57   S71     2.200   .     S
Si58   S62     2.090   .     S
Si58   S66     2.099   .     S
Si58   S70     2.203   .     S
Si58   S71     2.192   .     S
Si59   S61     2.087   .     S
Si59   S63     2.087   .     S
Si59   S64     2.221   .     S
Si59   S65     2.200   .     S
Si60   S64     2.203   .     S
Si60   S65     2.192   .     S
Si60   S68     2.090   .     S
Si60   S72     2.099   .     S
Si81   S91     2.087   .     S
Si81   S93     2.087   .     S
Si81   S94     2.221   .     S
Si81   S95     2.200   .     S
Si82   S86     2.090   .     S
Si82   S90     2.099   .     S
Si82   S94     2.203   .     S
Si82   S95     2.192   .     S
Si83   S85     2.087   .     S
Si83   S87     2.087   .     S
Si83   S88     2.221   .     S
Si83   S89     2.200   .     S
Si84   S88     2.203   .     S
Si84   S89     2.192   .     S
Si84   S92     2.090   .     S
Si84   S96     2.099   .     S
