# generated using pymatgen
data_Li2GeS3
_symmetry_space_group_name_H-M   'P 1'
_cell_length_a   11.83540000
_cell_length_b   15.30580000
_cell_length_c   11.38960000
_cell_angle_alpha   90.00000000
_cell_angle_beta   90.00000000
_cell_angle_gamma   90.00000000
_symmetry_Int_Tables_number   1
_chemical_formula_structural   Li2GeS3
_chemical_formula_sum   'Li32 Ge16 S48'
_cell_volume   2063.22906189
_cell_formula_units_Z   16
loop_
 _symmetry_equiv_pos_site_id
 _symmetry_equiv_pos_as_xyz
  1  'x, y, z'
loop_
 _atom_site_type_symbol
 _atom_site_label
 _atom_site_symmetry_multiplicity
 _atom_site_fract_x
 _atom_site_fract_y
 _atom_site_fract_z
 _atom_site_occupancy
  Li  Li0  1  0.65184000  0.21228000  0.29162000  1.0
  Li  Li1  1  0.65184000  0.21228000  0.79162000  1.0
  Li  Li2  1  0.65184000  0.71228000  0.29162000  1.0
  Li  Li3  1  0.65184000  0.71228000  0.79162000  1.0
  Li  Li4  1  0.84816000  0.28772000  0.04162000  1.0
  Li  Li5  1  0.84816000  0.28772000  0.54162000  1.0
  Li  Li6  1  0.84816000  0.78772000  0.04162000  1.0
  Li  Li7  1  0.84816000  0.78772000  0.54162000  1.0
  Li  Li8  1  0.34816000  0.46228000  0.45838000  1.0
  Li  Li9  1  0.34816000  0.46228000  0.95838000  1.0
  Li  Li10  1  0.34816000  0.96228000  0.45838000  1.0
  Li  Li11  1  0.34816000  0.96228000  0.95838000  1.0
  Li  Li12  1  0.15184000  0.03772000  0.20838000  1.0
  Li  Li13  1  0.15184000  0.03772000  0.70838000  1.0
  Li  Li14  1  0.15184000  0.53772000  0.20838000  1.0
  Li  Li15  1  0.15184000  0.53772000  0.70838000  1.0
  Li  Li16  1  0.51171000  0.44427000  0.24751500  1.0
  Li  Li17  1  0.51171000  0.44427000  0.74751500  1.0
  Li  Li18  1  0.51171000  0.94427000  0.24751500  1.0
  Li  Li19  1  0.51171000  0.94427000  0.74751500  1.0
  Li  Li20  1  0.98829000  0.05573000  0.49751500  1.0
  Li  Li21  1  0.98829000  0.05573000  0.99751500  1.0
  Li  Li22  1  0.98829000  0.55573000  0.49751500  1.0
  Li  Li23  1  0.98829000  0.55573000  0.99751500  1.0
  Li  Li24  1  0.48829000  0.19427000  0.00248500  1.0
  Li  Li25  1  0.48829000  0.19427000  0.50248500  1.0
  Li  Li26  1  0.48829000  0.69427000  0.00248500  1.0
  Li  Li27  1  0.48829000  0.69427000  0.50248500  1.0
  Li  Li28  1  0.01171000  0.30573000  0.25248500  1.0
  Li  Li29  1  0.01171000  0.30573000  0.75248500  1.0
  Li  Li30  1  0.01171000  0.80573000  0.25248500  1.0
  Li  Li31  1  0.01171000  0.80573000  0.75248500  1.0
  Ge  Ge32  1  0.82793000  0.44363500  0.24839000  1.0
  Ge  Ge33  1  0.82793000  0.44363500  0.74839000  1.0
  Ge  Ge34  1  0.82793000  0.94363500  0.24839000  1.0
  Ge  Ge35  1  0.82793000  0.94363500  0.74839000  1.0
  Ge  Ge36  1  0.67207000  0.05636500  0.49839000  1.0
  Ge  Ge37  1  0.67207000  0.05636500  0.99839000  1.0
  Ge  Ge38  1  0.67207000  0.55636500  0.49839000  1.0
  Ge  Ge39  1  0.67207000  0.55636500  0.99839000  1.0
  Ge  Ge40  1  0.17207000  0.19363500  0.00161000  1.0
  Ge  Ge41  1  0.17207000  0.19363500  0.50161000  1.0
  Ge  Ge42  1  0.17207000  0.69363500  0.00161000  1.0
  Ge  Ge43  1  0.17207000  0.69363500  0.50161000  1.0
  Ge  Ge44  1  0.32793000  0.30636500  0.25161000  1.0
  Ge  Ge45  1  0.32793000  0.30636500  0.75161000  1.0
  Ge  Ge46  1  0.32793000  0.80636500  0.25161000  1.0
  Ge  Ge47  1  0.32793000  0.80636500  0.75161000  1.0
  S  S48  1  0.51387000  0.05610500  0.39619500  1.0
  S  S49  1  0.51387000  0.05610500  0.89619500  1.0
  S  S50  1  0.51387000  0.55610500  0.39619500  1.0
  S  S51  1  0.51387000  0.55610500  0.89619500  1.0
  S  S52  1  0.98613000  0.44389500  0.14619500  1.0
  S  S53  1  0.98613000  0.44389500  0.64619500  1.0
  S  S54  1  0.98613000  0.94389500  0.14619500  1.0
  S  S55  1  0.98613000  0.94389500  0.64619500  1.0
  S  S56  1  0.48613000  0.30610500  0.35380500  1.0
  S  S57  1  0.48613000  0.30610500  0.85380500  1.0
  S  S58  1  0.48613000  0.80610500  0.35380500  1.0
  S  S59  1  0.48613000  0.80610500  0.85380500  1.0
  S  S60  1  0.01387000  0.19389500  0.10380500  1.0
  S  S61  1  0.01387000  0.19389500  0.60380500  1.0
  S  S62  1  0.01387000  0.69389500  0.10380500  1.0
  S  S63  1  0.01387000  0.69389500  0.60380500  1.0
  S  S64  1  0.81917000  0.31348500  0.33157500  1.0
  S  S65  1  0.81917000  0.31348500  0.83157500  1.0
  S  S66  1  0.81917000  0.81348500  0.33157500  1.0
  S  S67  1  0.81917000  0.81348500  0.83157500  1.0
  S  S68  1  0.68083000  0.18651500  0.08157500  1.0
  S  S69  1  0.68083000  0.18651500  0.58157500  1.0
  S  S70  1  0.68083000  0.68651500  0.08157500  1.0
  S  S71  1  0.68083000  0.68651500  0.58157500  1.0
  S  S72  1  0.18083000  0.06348500  0.41842500  1.0
  S  S73  1  0.18083000  0.06348500  0.91842500  1.0
  S  S74  1  0.18083000  0.56348500  0.41842500  1.0
  S  S75  1  0.18083000  0.56348500  0.91842500  1.0
  S  S76  1  0.31917000  0.43651500  0.16842500  1.0
  S  S77  1  0.31917000  0.43651500  0.66842500  1.0
  S  S78  1  0.31917000  0.93651500  0.16842500  1.0
  S  S79  1  0.31917000  0.93651500  0.66842500  1.0
  S  S80  1  0.17880000  0.31435000  0.38254500  1.0
  S  S81  1  0.17880000  0.31435000  0.88254500  1.0
  S  S82  1  0.17880000  0.81435000  0.38254500  1.0
  S  S83  1  0.17880000  0.81435000  0.88254500  1.0
  S  S84  1  0.32120000  0.18565000  0.13254500  1.0
  S  S85  1  0.32120000  0.18565000  0.63254500  1.0
  S  S86  1  0.32120000  0.68565000  0.13254500  1.0
  S  S87  1  0.32120000  0.68565000  0.63254500  1.0
  S  S88  1  0.82120000  0.06435000  0.36745500  1.0
  S  S89  1  0.82120000  0.06435000  0.86745500  1.0
  S  S90  1  0.82120000  0.56435000  0.36745500  1.0
  S  S91  1  0.82120000  0.56435000  0.86745500  1.0
  S  S92  1  0.67880000  0.43565000  0.11745500  1.0
  S  S93  1  0.67880000  0.43565000  0.61745500  1.0
  S  S94  1  0.67880000  0.93565000  0.11745500  1.0
  S  S95  1  0.67880000  0.93565000  0.61745500  1.0
