data_BaLiGe2_C-selectedcfg_11_contcar
_audit_creation_date              2025-07-02
_audit_creation_method            'Materials Studio'
_symmetry_space_group_name_H-M    'PNMA'
_symmetry_Int_Tables_number       62
_symmetry_cell_setting            orthorhombic
loop_
_symmetry_equiv_pos_as_xyz
  x,y,z
  -x+1/2,-y,z+1/2
  -x,y+1/2,-z
  x+1/2,-y+1/2,-z+1/2
  -x,-y,-z
  x+1/2,y,-z+1/2
  x,-y+1/2,z
  -x+1/2,y+1/2,z+1/2
_cell_length_a                    7.5147
_cell_length_b                    4.6721
_cell_length_c                    11.9504
_cell_angle_alpha                 90.0000
_cell_angle_beta                  90.0000
_cell_angle_gamma                 90.0000
loop_
_atom_site_label
_atom_site_type_symbol
_atom_site_fract_x
_atom_site_fract_y
_atom_site_fract_z
_atom_site_U_iso_or_equiv
_atom_site_adp_type
_atom_site_occupancy
Ba0    Ba    1.13688   0.75000  -0.64077   0.00000  Uiso   1.00
Ge8    Ge    1.19809   0.75000  -0.34831   0.00000  Uiso   1.00
Ge12   Ge    1.03274   0.75000  -0.15937   0.00000  Uiso   1.00
Li4    Li    0.38333   0.25000  -0.43671   0.00000  Uiso   1.00
