data_148_contcar
_audit_creation_date              2024-02-16
_audit_creation_method            'Materials Studio'
_symmetry_space_group_name_H-M    'P1'
_symmetry_Int_Tables_number       1
_symmetry_cell_setting            triclinic
loop_
_symmetry_equiv_pos_as_xyz
  x,y,z
_cell_length_a                    11.8131
_cell_length_b                    11.8767
_cell_length_c                    13.7604
_cell_angle_alpha                 90.0000
_cell_angle_beta                  90.0000
_cell_angle_gamma                 90.0343
loop_
_atom_site_label
_atom_site_type_symbol
_atom_site_fract_x
_atom_site_fract_y
_atom_site_fract_z
_atom_site_U_iso_or_equiv
_atom_site_adp_type
_atom_site_occupancy
Li1    Li    0.20465   0.30090   0.07142   0.00000  Uiso   1.00
Li2    Li    0.88136   0.05091   0.22176   0.00000  Uiso   1.00
Li3    Li    0.38163   0.24224   0.32142   0.00000  Uiso   1.00
Li4    Li    0.70493   0.49223   0.47176   0.00000  Uiso   1.00
Li5    Li    0.87829   0.30099   0.07006   0.00000  Uiso   1.00
Li6    Li    0.20800   0.05107   0.22307   0.00000  Uiso   1.00
Li7    Li    0.70800   0.24215   0.32006   0.00000  Uiso   1.00
Li8    Li    0.37828   0.49207   0.47307   0.00000  Uiso   1.00
Si9    Si    0.54255   0.24417   0.06464   0.00000  Uiso   1.00
Si10   Si    0.54365   0.49422   0.22845   0.00000  Uiso   1.00
Si11   Si    0.04374   0.29897   0.31464   0.00000  Uiso   1.00
Si12   Si    0.04263   0.04892   0.47845   0.00000  Uiso   1.00
S13    S    -0.10774   0.00712   0.54958   0.00000  Uiso   1.00
S14    S     0.19416   0.25715   0.24378   0.00000  Uiso   1.00
S15    S     0.69402   0.03602   0.29958   0.00000  Uiso   1.00
S16    S     0.39212   0.28599  -0.00622   0.00000  Uiso   1.00
S17    S     0.19194   0.00695   0.55077   0.00000  Uiso   1.00
S18    S    -0.10570   0.25686   0.24231   0.00000  Uiso   1.00
S19    S     0.39434   0.03619   0.30077   0.00000  Uiso   1.00
S20    S     0.69198   0.28628  -0.00769   0.00000  Uiso   1.00
S21    S     0.54263   0.05679   0.07808   0.00000  Uiso   1.00
S22    S     0.54385   0.30683   0.21494   0.00000  Uiso   1.00
S23    S     0.04365   0.48635   0.32808   0.00000  Uiso   1.00
S24    S     0.04243   0.23631   0.46494   0.00000  Uiso   1.00
Li25   Li    0.20465   0.80090   0.07142   0.00000  Uiso   1.00
Li26   Li    0.88136   0.55091   0.22176   0.00000  Uiso   1.00
Li27   Li    0.38163   0.74224   0.32142   0.00000  Uiso   1.00
Li28   Li    0.70493   0.99223   0.47176   0.00000  Uiso   1.00
Li29   Li    0.87829   0.80099   0.07006   0.00000  Uiso   1.00
Li30   Li    0.20800   0.55107   0.22307   0.00000  Uiso   1.00
Li31   Li    0.70800   0.74215   0.32006   0.00000  Uiso   1.00
Li32   Li    0.37828   0.99207   0.47307   0.00000  Uiso   1.00
Si33   Si    0.54255   0.74417   0.06464   0.00000  Uiso   1.00
Si34   Si    0.54365   0.99422   0.22845   0.00000  Uiso   1.00
Si35   Si    0.04374   0.79897   0.31464   0.00000  Uiso   1.00
Si36   Si    0.04263   0.54892   0.47845   0.00000  Uiso   1.00
S37    S    -0.10774   0.50712   0.54958   0.00000  Uiso   1.00
S38    S     0.19416   0.75715   0.24378   0.00000  Uiso   1.00
S39    S     0.69402   0.53602   0.29958   0.00000  Uiso   1.00
S40    S     0.39212   0.78599  -0.00622   0.00000  Uiso   1.00
S41    S     0.19194   0.50695   0.55077   0.00000  Uiso   1.00
S42    S    -0.10570   0.75686   0.24231   0.00000  Uiso   1.00
S43    S     0.39434   0.53619   0.30077   0.00000  Uiso   1.00
S44    S     0.69198   0.78628  -0.00769   0.00000  Uiso   1.00
S45    S     0.54263   0.55679   0.07808   0.00000  Uiso   1.00
S46    S     0.54385   0.80683   0.21494   0.00000  Uiso   1.00
S47    S     0.04365   0.98635   0.32808   0.00000  Uiso   1.00
S48    S     0.04243   0.73631   0.46494   0.00000  Uiso   1.00
Li49   Li    0.20465   0.30090   0.57142   0.00000  Uiso   1.00
Li50   Li    0.88136   0.05091   0.72176   0.00000  Uiso   1.00
Li51   Li    0.38163   0.24224   0.82142   0.00000  Uiso   1.00
Li52   Li    0.70493   0.49223   0.97176   0.00000  Uiso   1.00
Li53   Li    0.87829   0.30099   0.57006   0.00000  Uiso   1.00
Li54   Li    0.20800   0.05107   0.72307   0.00000  Uiso   1.00
Li55   Li    0.70800   0.24215   0.82006   0.00000  Uiso   1.00
Li56   Li    0.37828   0.49207   0.97307   0.00000  Uiso   1.00
Si57   Si    0.54255   0.24417   0.56464   0.00000  Uiso   1.00
Si58   Si    0.54365   0.49422   0.72845   0.00000  Uiso   1.00
Si59   Si    0.04374   0.29897   0.81464   0.00000  Uiso   1.00
Si60   Si    0.04263   0.04892   0.97845   0.00000  Uiso   1.00
S61    S    -0.10774   0.00712   1.04958   0.00000  Uiso   1.00
S62    S     0.19416   0.25715   0.74378   0.00000  Uiso   1.00
S63    S     0.69402   0.03602   0.79958   0.00000  Uiso   1.00
S64    S     0.39212   0.28599   0.49378   0.00000  Uiso   1.00
S65    S     0.19194   0.00695   1.05077   0.00000  Uiso   1.00
S66    S    -0.10570   0.25686   0.74231   0.00000  Uiso   1.00
S67    S     0.39434   0.03619   0.80077   0.00000  Uiso   1.00
S68    S     0.69198   0.28628   0.49231   0.00000  Uiso   1.00
S69    S     0.54263   0.05679   0.57808   0.00000  Uiso   1.00
S70    S     0.54385   0.30683   0.71494   0.00000  Uiso   1.00
S71    S     0.04365   0.48635   0.82808   0.00000  Uiso   1.00
S72    S     0.04243   0.23631   0.96494   0.00000  Uiso   1.00
Li73   Li    0.20465   0.80090   0.57142   0.00000  Uiso   1.00
Li74   Li    0.88136   0.55091   0.72176   0.00000  Uiso   1.00
Li75   Li    0.38163   0.74224   0.82142   0.00000  Uiso   1.00
Li76   Li    0.70493   0.99223   0.97176   0.00000  Uiso   1.00
Li77   Li    0.87829   0.80099   0.57006   0.00000  Uiso   1.00
Li78   Li    0.20800   0.55107   0.72307   0.00000  Uiso   1.00
Li79   Li    0.70800   0.74215   0.82006   0.00000  Uiso   1.00
Li80   Li    0.37828   0.99207   0.97307   0.00000  Uiso   1.00
Si81   Si    0.54255   0.74417   0.56464   0.00000  Uiso   1.00
Si82   Si    0.54365   0.99422   0.72845   0.00000  Uiso   1.00
Si83   Si    0.04374   0.79897   0.81464   0.00000  Uiso   1.00
Si84   Si    0.04263   0.54892   0.97845   0.00000  Uiso   1.00
S85    S    -0.10774   0.50712   1.04958   0.00000  Uiso   1.00
S86    S     0.19416   0.75715   0.74378   0.00000  Uiso   1.00
S87    S     0.69402   0.53602   0.79958   0.00000  Uiso   1.00
S88    S     0.39212   0.78599   0.49378   0.00000  Uiso   1.00
S89    S     0.19194   0.50695   1.05077   0.00000  Uiso   1.00
S90    S    -0.10570   0.75686   0.74231   0.00000  Uiso   1.00
S91    S     0.39434   0.53619   0.80077   0.00000  Uiso   1.00
S92    S     0.69198   0.78628   0.49231   0.00000  Uiso   1.00
S93    S     0.54263   0.55679   0.57808   0.00000  Uiso   1.00
S94    S     0.54385   0.80683   0.71494   0.00000  Uiso   1.00
S95    S     0.04365   0.98635   0.82808   0.00000  Uiso   1.00
S96    S     0.04243   0.73631   0.96494   0.00000  Uiso   1.00
loop_
_geom_bond_atom_site_label_1
_geom_bond_atom_site_label_2
_geom_bond_distance
_geom_bond_site_symmetry_2
_ccdc_geom_bond_type
Si9    S16     2.087   .     S
Si9    S20     2.087   .     S
Si9    S21     2.233   .     S
Si9    S22     2.198   .     S
Si10   S39     2.088   .     S
Si10   S43     2.086   .     S
Si10   S45     2.199   .     S
Si10   S22     2.233   .     S
Si11   S14     2.087   .     S
Si11   S18     2.087   .     S
Si11   S23     2.233   .     S
Si11   S24     2.198   .     S
Si12   S13     2.088   .     S
Si12   S17     2.086   .     S
Si12   S47     2.199   1_545 S
Si12   S24     2.233   .     S
S15    Si34    2.088   1_545 S
S19    Si34    2.086   1_545 S
S21    Si34    2.199   1_545 S
S23    Si36    2.199   .     S
Si33   S40     2.087   .     S
Si33   S44     2.087   .     S
Si33   S45     2.233   .     S
Si33   S46     2.198   .     S
Si34   S15     2.088   1_565 S
Si34   S19     2.086   1_565 S
Si34   S21     2.199   1_565 S
Si34   S46     2.233   .     S
Si35   S38     2.087   .     S
Si35   S42     2.087   .     S
Si35   S47     2.233   .     S
Si35   S48     2.198   .     S
Si36   S37     2.088   .     S
Si36   S41     2.086   .     S
Si36   S48     2.233   .     S
S47    Si12    2.199   1_565 S
Si57   S64     2.087   .     S
Si57   S68     2.087   .     S
Si57   S69     2.233   .     S
Si57   S70     2.198   .     S
Si58   S87     2.088   .     S
Si58   S91     2.086   .     S
Si58   S93     2.199   .     S
Si58   S70     2.233   .     S
Si59   S62     2.087   .     S
Si59   S66     2.087   .     S
Si59   S71     2.233   .     S
Si59   S72     2.198   .     S
Si60   S61     2.088   .     S
Si60   S65     2.086   .     S
Si60   S95     2.199   1_545 S
Si60   S72     2.233   .     S
S63    Si82    2.088   1_545 S
S67    Si82    2.086   1_545 S
S69    Si82    2.199   1_545 S
S71    Si84    2.199   .     S
Si81   S88     2.087   .     S
Si81   S92     2.087   .     S
Si81   S93     2.233   .     S
Si81   S94     2.198   .     S
Si82   S63     2.088   1_565 S
Si82   S67     2.086   1_565 S
Si82   S69     2.199   1_565 S
Si82   S94     2.233   .     S
Si83   S86     2.087   .     S
Si83   S90     2.087   .     S
Si83   S95     2.233   .     S
Si83   S96     2.198   .     S
Si84   S85     2.088   .     S
Si84   S89     2.086   .     S
Si84   S96     2.233   .     S
S95    Si60    2.199   1_565 S
