# generated using pymatgen
data_Li2SiS3
_symmetry_space_group_name_H-M   'P 1'
_cell_length_a   11.80602075
_cell_length_b   6.62711149
_cell_length_c   6.60539413
_cell_angle_alpha   89.29581289
_cell_angle_beta   94.31814532
_cell_angle_gamma   89.88728433
_symmetry_Int_Tables_number   1
_chemical_formula_structural   Li2SiS3
_chemical_formula_sum   'Li8 Si4 S12'
_cell_volume   515.29669621
_cell_formula_units_Z   4
loop_
 _symmetry_equiv_pos_site_id
 _symmetry_equiv_pos_as_xyz
  1  'x, y, z'
loop_
 _atom_site_type_symbol
 _atom_site_label
 _atom_site_symmetry_multiplicity
 _atom_site_fract_x
 _atom_site_fract_y
 _atom_site_fract_z
 _atom_site_occupancy
  Li  Li0  1  0.19138647  0.84939372  0.17907122  1
  Li  Li1  1  0.38848853  0.63468028  0.88488178  1
  Li  Li2  1  0.35937457  0.36613711  0.39930543  1
  Li  Li3  1  0.22050043  0.11793689  0.66464657  1
  Li  Li4  1  0.69138647  0.34939472  0.17907322  1
  Li  Li5  1  0.88848853  0.13468228  0.88487878  1
  Li  Li6  1  0.85937657  0.86613711  0.39930243  1
  Li  Li7  1  0.72050043  0.61793889  0.66464757  1
  Si  Si8  1  0.03371865  0.32490729  0.38044450  1
  Si  Si9  1  0.54615535  0.15916771  0.68350750  1
  Si  Si10  1  0.53371965  0.82490829  0.38044750  1
  Si  Si11  1  0.04615635  0.65916871  0.68350750  1
  S  S12  1  0.38471356  0.69710880  0.25035685  1
  S  S13  1  0.19516244  0.78696420  0.81359615  1
  S  S14  1  0.18384547  0.19474946  0.29358388  1
  S  S15  1  0.39602953  0.28932354  0.77036812  1
  S  S16  1  0.03773221  0.65604498  0.34759691  1
  S  S17  1  0.54214379  0.82803202  0.71635509  1
  S  S18  1  0.88471056  0.19711280  0.25035585  1
  S  S19  1  0.69516144  0.28696720  0.81359715  1
  S  S20  1  0.68384547  0.69475046  0.29358488  1
  S  S21  1  0.89603053  0.78932654  0.77036812  1
  S  S22  1  0.53773121  0.15604398  0.34759791  1
  S  S23  1  0.04214379  0.32803002  0.71635309  1
