data_112_contcar
_audit_creation_date              2024-02-16
_audit_creation_method            'Materials Studio'
_symmetry_space_group_name_H-M    'P1'
_symmetry_Int_Tables_number       1
_symmetry_cell_setting            triclinic
loop_
_symmetry_equiv_pos_as_xyz
  x,y,z
_cell_length_a                    11.8079
_cell_length_b                    11.8882
_cell_length_c                    13.7608
_cell_angle_alpha                 90.0000
_cell_angle_beta                  90.0000
_cell_angle_gamma                 90.0181
loop_
_atom_site_label
_atom_site_type_symbol
_atom_site_fract_x
_atom_site_fract_y
_atom_site_fract_z
_atom_site_U_iso_or_equiv
_atom_site_adp_type
_atom_site_occupancy
Li1    Li    0.38252   0.05476   0.07225   0.00000  Uiso   1.00
Li2    Li    0.71041   0.30439   0.22416   0.00000  Uiso   1.00
Li3    Li    0.21057   0.49178   0.32225   0.00000  Uiso   1.00
Li4    Li    0.88268   0.24215   0.47416   0.00000  Uiso   1.00
Li5    Li    0.70793   0.05443   0.07349   0.00000  Uiso   1.00
Li6    Li    0.38520   0.30460   0.22295   0.00000  Uiso   1.00
Li7    Li    0.88515   0.49211   0.32349   0.00000  Uiso   1.00
Li8    Li    0.20789   0.24194   0.47295   0.00000  Uiso   1.00
Si9    Si    0.04610   0.49471   0.06671   0.00000  Uiso   1.00
Si10   Si    0.04717   0.24469   0.22997   0.00000  Uiso   1.00
Si11   Si    0.54699   0.05183   0.31671   0.00000  Uiso   1.00
Si12   Si    0.54591   0.30186   0.47997   0.00000  Uiso   1.00
S13    S     0.04756   0.05732   0.21671   0.00000  Uiso   1.00
S14    S     0.04586   0.30740   0.07993   0.00000  Uiso   1.00
S15    S     0.54552   0.48922   0.46671   0.00000  Uiso   1.00
S16    S     0.54723   0.23915   0.32993   0.00000  Uiso   1.00
S17    S     0.69555   0.25988   0.55191   0.00000  Uiso   1.00
S18    S     0.39737   0.00992   0.24451   0.00000  Uiso   1.00
S19    S    -0.10247   0.28667   0.30191   0.00000  Uiso   1.00
S20    S     0.19571   0.03662  -0.00549   0.00000  Uiso   1.00
S21    S     0.39558   0.26004   0.55093   0.00000  Uiso   1.00
S22    S     0.69727   0.00977   0.24573   0.00000  Uiso   1.00
S23    S     0.19750   0.28650   0.30093   0.00000  Uiso   1.00
S24    S    -0.10419   0.03677  -0.00427   0.00000  Uiso   1.00
Li25   Li    0.38252   0.55476   0.07225   0.00000  Uiso   1.00
Li26   Li    0.71041   0.80439   0.22416   0.00000  Uiso   1.00
Li27   Li    0.21057   0.99178   0.32225   0.00000  Uiso   1.00
Li28   Li    0.88268   0.74215   0.47416   0.00000  Uiso   1.00
Li29   Li    0.70793   0.55443   0.07349   0.00000  Uiso   1.00
Li30   Li    0.38520   0.80460   0.22295   0.00000  Uiso   1.00
Li31   Li    0.88515   0.99211   0.32349   0.00000  Uiso   1.00
Li32   Li    0.20789   0.74194   0.47295   0.00000  Uiso   1.00
Si33   Si    0.04610   0.99471   0.06671   0.00000  Uiso   1.00
Si34   Si    0.04717   0.74469   0.22997   0.00000  Uiso   1.00
Si35   Si    0.54699   0.55183   0.31671   0.00000  Uiso   1.00
Si36   Si    0.54591   0.80186   0.47997   0.00000  Uiso   1.00
S37    S     0.04756   0.55732   0.21671   0.00000  Uiso   1.00
S38    S     0.04586   0.80740   0.07993   0.00000  Uiso   1.00
S39    S     0.54552   0.98922   0.46671   0.00000  Uiso   1.00
S40    S     0.54723   0.73915   0.32993   0.00000  Uiso   1.00
S41    S     0.69555   0.75988   0.55191   0.00000  Uiso   1.00
S42    S     0.39737   0.50992   0.24451   0.00000  Uiso   1.00
S43    S    -0.10247   0.78667   0.30191   0.00000  Uiso   1.00
S44    S     0.19571   0.53662  -0.00549   0.00000  Uiso   1.00
S45    S     0.39558   0.76004   0.55093   0.00000  Uiso   1.00
S46    S     0.69727   0.50977   0.24573   0.00000  Uiso   1.00
S47    S     0.19750   0.78650   0.30093   0.00000  Uiso   1.00
S48    S    -0.10419   0.53677  -0.00427   0.00000  Uiso   1.00
Li49   Li    0.38252   0.05476   0.57225   0.00000  Uiso   1.00
Li50   Li    0.71041   0.30439   0.72416   0.00000  Uiso   1.00
Li51   Li    0.21057   0.49178   0.82225   0.00000  Uiso   1.00
Li52   Li    0.88268   0.24215   0.97416   0.00000  Uiso   1.00
Li53   Li    0.70793   0.05443   0.57349   0.00000  Uiso   1.00
Li54   Li    0.38520   0.30460   0.72295   0.00000  Uiso   1.00
Li55   Li    0.88515   0.49211   0.82349   0.00000  Uiso   1.00
Li56   Li    0.20789   0.24194   0.97295   0.00000  Uiso   1.00
Si57   Si    0.04610   0.49471   0.56671   0.00000  Uiso   1.00
Si58   Si    0.04717   0.24469   0.72997   0.00000  Uiso   1.00
Si59   Si    0.54699   0.05183   0.81671   0.00000  Uiso   1.00
Si60   Si    0.54591   0.30186   0.97997   0.00000  Uiso   1.00
S61    S     0.04756   0.05732   0.71671   0.00000  Uiso   1.00
S62    S     0.04586   0.30740   0.57993   0.00000  Uiso   1.00
S63    S     0.54552   0.48922   0.96671   0.00000  Uiso   1.00
S64    S     0.54723   0.23915   0.82993   0.00000  Uiso   1.00
S65    S     0.69555   0.25988   1.05191   0.00000  Uiso   1.00
S66    S     0.39737   0.00992   0.74451   0.00000  Uiso   1.00
S67    S    -0.10247   0.28667   0.80191   0.00000  Uiso   1.00
S68    S     0.19571   0.03662   0.49451   0.00000  Uiso   1.00
S69    S     0.39558   0.26004   1.05093   0.00000  Uiso   1.00
S70    S     0.69727   0.00977   0.74573   0.00000  Uiso   1.00
S71    S     0.19750   0.28650   0.80093   0.00000  Uiso   1.00
S72    S    -0.10419   0.03677   0.49573   0.00000  Uiso   1.00
Li73   Li    0.38252   0.55476   0.57225   0.00000  Uiso   1.00
Li74   Li    0.71041   0.80439   0.72416   0.00000  Uiso   1.00
Li75   Li    0.21057   0.99178   0.82225   0.00000  Uiso   1.00
Li76   Li    0.88268   0.74215   0.97416   0.00000  Uiso   1.00
Li77   Li    0.70793   0.55443   0.57349   0.00000  Uiso   1.00
Li78   Li    0.38520   0.80460   0.72295   0.00000  Uiso   1.00
Li79   Li    0.88515   0.99211   0.82349   0.00000  Uiso   1.00
Li80   Li    0.20789   0.74194   0.97295   0.00000  Uiso   1.00
Si81   Si    0.04610   0.99471   0.56671   0.00000  Uiso   1.00
Si82   Si    0.04717   0.74469   0.72997   0.00000  Uiso   1.00
Si83   Si    0.54699   0.55183   0.81671   0.00000  Uiso   1.00
Si84   Si    0.54591   0.80186   0.97997   0.00000  Uiso   1.00
S85    S     0.04756   0.55732   0.71671   0.00000  Uiso   1.00
S86    S     0.04586   0.80740   0.57993   0.00000  Uiso   1.00
S87    S     0.54552   0.98922   0.96671   0.00000  Uiso   1.00
S88    S     0.54723   0.73915   0.82993   0.00000  Uiso   1.00
S89    S     0.69555   0.75988   1.05191   0.00000  Uiso   1.00
S90    S     0.39737   0.50992   0.74451   0.00000  Uiso   1.00
S91    S    -0.10247   0.78667   0.80191   0.00000  Uiso   1.00
S92    S     0.19571   0.53662   0.49451   0.00000  Uiso   1.00
S93    S     0.39558   0.76004   1.05093   0.00000  Uiso   1.00
S94    S     0.69727   0.50977   0.74573   0.00000  Uiso   1.00
S95    S     0.19750   0.78650   0.80093   0.00000  Uiso   1.00
S96    S    -0.10419   0.53677   0.49573   0.00000  Uiso   1.00
loop_
_geom_bond_atom_site_label_1
_geom_bond_atom_site_label_2
_geom_bond_distance
_geom_bond_site_symmetry_2
_ccdc_geom_bond_type
Si9    S37     2.194   .     S
Si9    S14     2.234   .     S
Si9    S44     2.087   .     S
Si9    S48     2.087   .     S
Si10   S13     2.235   .     S
Si10   S14     2.195   .     S
Si10   S19     2.086   .     S
Si10   S23     2.086   .     S
Si11   S39     2.194   1_545 S
Si11   S16     2.234   .     S
Si11   S18     2.087   .     S
Si11   S22     2.086   .     S
Si12   S15     2.235   .     S
Si12   S16     2.195   .     S
Si12   S17     2.086   .     S
Si12   S21     2.086   .     S
S13    Si33    2.194   1_545 S
S15    Si35    2.194   .     S
S20    Si33    2.087   1_545 S
S24    Si33    2.087   1_545 S
Si33   S13     2.194   1_565 S
Si33   S38     2.234   .     S
Si33   S20     2.087   1_565 S
Si33   S24     2.087   1_565 S
Si34   S37     2.235   .     S
Si34   S38     2.195   .     S
Si34   S43     2.086   .     S
Si34   S47     2.086   .     S
Si35   S40     2.234   .     S
Si35   S42     2.087   .     S
Si35   S46     2.086   .     S
Si36   S39     2.235   .     S
Si36   S40     2.195   .     S
Si36   S41     2.086   .     S
Si36   S45     2.086   .     S
S39    Si11    2.194   1_565 S
Si57   S85     2.194   .     S
Si57   S62     2.234   .     S
Si57   S92     2.087   .     S
Si57   S96     2.087   .     S
Si58   S61     2.235   .     S
Si58   S62     2.195   .     S
Si58   S67     2.086   .     S
Si58   S71     2.086   .     S
Si59   S87     2.194   1_545 S
Si59   S64     2.234   .     S
Si59   S66     2.087   .     S
Si59   S70     2.086   .     S
Si60   S63     2.235   .     S
Si60   S64     2.195   .     S
Si60   S65     2.086   .     S
Si60   S69     2.086   .     S
S61    Si81    2.194   1_545 S
S63    Si83    2.194   .     S
S68    Si81    2.087   1_545 S
S72    Si81    2.087   1_545 S
Si81   S61     2.194   1_565 S
Si81   S86     2.234   .     S
Si81   S68     2.087   1_565 S
Si81   S72     2.087   1_565 S
Si82   S85     2.235   .     S
Si82   S86     2.195   .     S
Si82   S91     2.086   .     S
Si82   S95     2.086   .     S
Si83   S88     2.234   .     S
Si83   S90     2.087   .     S
Si83   S94     2.086   .     S
Si84   S87     2.235   .     S
Si84   S88     2.195   .     S
Si84   S89     2.086   .     S
Si84   S93     2.086   .     S
S87    Si59    2.194   1_565 S
