data_14_contcar
_audit_creation_date              2024-02-16
_audit_creation_method            'Materials Studio'
_symmetry_space_group_name_H-M    'P1'
_symmetry_Int_Tables_number       1
_symmetry_cell_setting            triclinic
loop_
_symmetry_equiv_pos_as_xyz
  x,y,z
_cell_length_a                    13.6274
_cell_length_b                    14.0314
_cell_length_c                    10.1767
_cell_angle_alpha                 84.7909
_cell_angle_beta                  90.0000
_cell_angle_gamma                 90.0000
loop_
_atom_site_label
_atom_site_type_symbol
_atom_site_fract_x
_atom_site_fract_y
_atom_site_fract_z
_atom_site_U_iso_or_equiv
_atom_site_adp_type
_atom_site_occupancy
Li1    Li    0.41187   0.14083   0.03664   0.00000  Uiso   1.00
Li2    Li    0.24905   0.13888   0.54192   0.00000  Uiso   1.00
Li3    Li    0.23458   0.44067   0.85623   0.00000  Uiso   1.00
Li4    Li    0.15753   0.38888   0.54192   0.00000  Uiso   1.00
Li5    Li    0.48410   0.19092   0.36121   0.00000  Uiso   1.00
Li6    Li    0.49470   0.39083   0.03664   0.00000  Uiso   1.00
Li7    Li    0.17200   0.19067   0.85623   0.00000  Uiso   1.00
Li8    Li    0.42248   0.44092   0.36121   0.00000  Uiso   1.00
Si9    Si    0.49040   0.04659   0.68111   0.00000  Uiso   1.00
Si10   Si    0.41617   0.29659   0.68111   0.00000  Uiso   1.00
Ge11   Ge    0.24098   0.29789   0.18174   0.00000  Uiso   1.00
Ge12   Ge    0.16560   0.04789   0.18174   0.00000  Uiso   1.00
S13    S     0.25463   0.07044   0.00206   0.00000  Uiso   1.00
S14    S     0.00704   0.02267   0.16548   0.00000  Uiso   1.00
S15    S     0.17229   0.17339   0.31652   0.00000  Uiso   1.00
S16    S     0.40666   0.06950   0.50983   0.00000  Uiso   1.00
S17    S     0.48048   0.17148   0.80510   0.00000  Uiso   1.00
S18    S     0.39954   0.27267   0.16548   0.00000  Uiso   1.00
S19    S     0.64204   0.02468   0.66544   0.00000  Uiso   1.00
S20    S     0.23429   0.42340   0.31652   0.00000  Uiso   1.00
S21    S     0.42610   0.42148   0.80510   0.00000  Uiso   1.00
S22    S     0.15195   0.32045   0.00206   0.00000  Uiso   1.00
S23    S     0.49992   0.31950   0.50983   0.00000  Uiso   1.00
S24    S     0.26453   0.27468   0.66544   0.00000  Uiso   1.00
Li25   Li    0.91187   0.14083   0.03664   0.00000  Uiso   1.00
Li26   Li    0.74905   0.13888   0.54192   0.00000  Uiso   1.00
Li27   Li    0.73458   0.44067   0.85623   0.00000  Uiso   1.00
Li28   Li    0.65753   0.38888   0.54192   0.00000  Uiso   1.00
Li29   Li    0.98410   0.19092   0.36121   0.00000  Uiso   1.00
Li30   Li    0.99470   0.39083   0.03664   0.00000  Uiso   1.00
Li31   Li    0.67200   0.19067   0.85623   0.00000  Uiso   1.00
Li32   Li    0.92248   0.44092   0.36121   0.00000  Uiso   1.00
Si33   Si    0.99040   0.04659   0.68111   0.00000  Uiso   1.00
Si34   Si    0.91617   0.29659   0.68111   0.00000  Uiso   1.00
Ge35   Ge    0.74098   0.29789   0.18174   0.00000  Uiso   1.00
Ge36   Ge    0.66560   0.04789   0.18174   0.00000  Uiso   1.00
S37    S     0.75463   0.07044   0.00206   0.00000  Uiso   1.00
S38    S     0.50704   0.02267   0.16548   0.00000  Uiso   1.00
S39    S     0.67229   0.17339   0.31652   0.00000  Uiso   1.00
S40    S     0.90666   0.06950   0.50983   0.00000  Uiso   1.00
S41    S     0.98048   0.17148   0.80510   0.00000  Uiso   1.00
S42    S     0.89954   0.27267   0.16548   0.00000  Uiso   1.00
S43    S     1.14204   0.02468   0.66544   0.00000  Uiso   1.00
S44    S     0.73429   0.42340   0.31652   0.00000  Uiso   1.00
S45    S     0.92610   0.42148   0.80510   0.00000  Uiso   1.00
S46    S     0.65195   0.32045   0.00206   0.00000  Uiso   1.00
S47    S     0.99992   0.31950   0.50983   0.00000  Uiso   1.00
S48    S     0.76453   0.27468   0.66544   0.00000  Uiso   1.00
Li49   Li    0.41187   0.64083   0.03664   0.00000  Uiso   1.00
Li50   Li    0.24905   0.63888   0.54192   0.00000  Uiso   1.00
Li51   Li    0.23458   0.94067   0.85623   0.00000  Uiso   1.00
Li52   Li    0.15753   0.88888   0.54192   0.00000  Uiso   1.00
Li53   Li    0.48410   0.69092   0.36121   0.00000  Uiso   1.00
Li54   Li    0.49470   0.89083   0.03664   0.00000  Uiso   1.00
Li55   Li    0.17200   0.69067   0.85623   0.00000  Uiso   1.00
Li56   Li    0.42248   0.94092   0.36121   0.00000  Uiso   1.00
Si57   Si    0.49040   0.54659   0.68111   0.00000  Uiso   1.00
Si58   Si    0.41617   0.79659   0.68111   0.00000  Uiso   1.00
Ge59   Ge    0.24098   0.79789   0.18174   0.00000  Uiso   1.00
Ge60   Ge    0.16560   0.54789   0.18174   0.00000  Uiso   1.00
S61    S     0.25463   0.57044   0.00206   0.00000  Uiso   1.00
S62    S     0.00704   0.52267   0.16548   0.00000  Uiso   1.00
S63    S     0.17229   0.67339   0.31652   0.00000  Uiso   1.00
S64    S     0.40666   0.56950   0.50983   0.00000  Uiso   1.00
S65    S     0.48048   0.67148   0.80510   0.00000  Uiso   1.00
S66    S     0.39954   0.77267   0.16548   0.00000  Uiso   1.00
S67    S     0.64204   0.52468   0.66544   0.00000  Uiso   1.00
S68    S     0.23429   0.92340   0.31652   0.00000  Uiso   1.00
S69    S     0.42610   0.92148   0.80510   0.00000  Uiso   1.00
S70    S     0.15195   0.82045   0.00206   0.00000  Uiso   1.00
S71    S     0.49992   0.81950   0.50983   0.00000  Uiso   1.00
S72    S     0.26453   0.77468   0.66544   0.00000  Uiso   1.00
Li73   Li    0.91187   0.64083   0.03664   0.00000  Uiso   1.00
Li74   Li    0.74905   0.63888   0.54192   0.00000  Uiso   1.00
Li75   Li    0.73458   0.94067   0.85623   0.00000  Uiso   1.00
Li76   Li    0.65753   0.88888   0.54192   0.00000  Uiso   1.00
Li77   Li    0.98410   0.69092   0.36121   0.00000  Uiso   1.00
Li78   Li    0.99470   0.89083   0.03664   0.00000  Uiso   1.00
Li79   Li    0.67200   0.69067   0.85623   0.00000  Uiso   1.00
Li80   Li    0.92248   0.94092   0.36121   0.00000  Uiso   1.00
Si81   Si    0.99040   0.54659   0.68111   0.00000  Uiso   1.00
Si82   Si    0.91617   0.79659   0.68111   0.00000  Uiso   1.00
Ge83   Ge    0.74098   0.79789   0.18174   0.00000  Uiso   1.00
Ge84   Ge    0.66560   0.54789   0.18174   0.00000  Uiso   1.00
S85    S     0.75463   0.57044   0.00206   0.00000  Uiso   1.00
S86    S     0.50704   0.52267   0.16548   0.00000  Uiso   1.00
S87    S     0.67229   0.67339   0.31652   0.00000  Uiso   1.00
S88    S     0.90666   0.56950   0.50983   0.00000  Uiso   1.00
S89    S     0.98048   0.67148   0.80510   0.00000  Uiso   1.00
S90    S     0.89954   0.77267   0.16548   0.00000  Uiso   1.00
S91    S     1.14204   0.52468   0.66544   0.00000  Uiso   1.00
S92    S     0.73429   0.92340   0.31652   0.00000  Uiso   1.00
S93    S     0.92610   0.92148   0.80510   0.00000  Uiso   1.00
S94    S     0.65195   0.82045   0.00206   0.00000  Uiso   1.00
S95    S     0.99992   0.81950   0.50983   0.00000  Uiso   1.00
S96    S     0.76453   0.77468   0.66544   0.00000  Uiso   1.00
loop_
_geom_bond_atom_site_label_1
_geom_bond_atom_site_label_2
_geom_bond_distance
_geom_bond_site_symmetry_2
_ccdc_geom_bond_type
Si9    S16     2.084   .     S
Si9    S17     2.254   .     S
Si9    S19     2.097   .     S
Si9    S69     2.245   1_545 S
Si10   S17     2.245   .     S
Si10   S21     2.254   .     S
Si10   S23     2.084   .     S
Si10   S24     2.097   .     S
Ge11   S15     2.318   .     S
Ge11   S18     2.198   .     S
Ge11   S20     2.330   .     S
Ge11   S22     2.193   .     S
Ge12   S13     2.193   .     S
Ge12   S14     2.198   .     S
Ge12   S15     2.330   .     S
Ge12   S68     2.318   1_545 S
S20    Ge60    2.318   .     S
S21    Si57    2.245   .     S
Si33   S40     2.084   .     S
Si33   S41     2.254   .     S
Si33   S43     2.097   .     S
Si33   S93     2.245   1_545 S
Si34   S41     2.245   .     S
Si34   S45     2.254   .     S
Si34   S47     2.084   .     S
Si34   S48     2.097   .     S
Ge35   S39     2.318   .     S
Ge35   S42     2.198   .     S
Ge35   S44     2.330   .     S
Ge35   S46     2.193   .     S
Ge36   S37     2.193   .     S
Ge36   S38     2.198   .     S
Ge36   S39     2.330   .     S
Ge36   S92     2.318   1_545 S
S44    Ge84    2.318   .     S
S45    Si81    2.245   .     S
Si57   S64     2.084   .     S
Si57   S65     2.254   .     S
Si57   S67     2.097   .     S
Si58   S65     2.245   .     S
Si58   S69     2.254   .     S
Si58   S71     2.084   .     S
Si58   S72     2.097   .     S
Ge59   S63     2.318   .     S
Ge59   S66     2.198   .     S
Ge59   S68     2.330   .     S
Ge59   S70     2.193   .     S
Ge60   S61     2.193   .     S
Ge60   S62     2.198   .     S
Ge60   S63     2.330   .     S
S68    Ge12    2.318   1_565 S
S69    Si9     2.245   1_565 S
Si81   S88     2.084   .     S
Si81   S89     2.254   .     S
Si81   S91     2.097   .     S
Si82   S89     2.245   .     S
Si82   S93     2.254   .     S
Si82   S95     2.084   .     S
Si82   S96     2.097   .     S
Ge83   S87     2.318   .     S
Ge83   S90     2.198   .     S
Ge83   S92     2.330   .     S
Ge83   S94     2.193   .     S
Ge84   S85     2.193   .     S
Ge84   S86     2.198   .     S
Ge84   S87     2.330   .     S
S92    Ge36    2.318   1_565 S
S93    Si33    2.245   1_565 S
