data_186_sym_contcar_sym_contcar
_audit_creation_date              2025-07-02
_audit_creation_method            'Materials Studio'
_symmetry_space_group_name_H-M    'P42/NMC'
_symmetry_Int_Tables_number       137
_symmetry_cell_setting            tetragonal
loop_
_symmetry_equiv_pos_as_xyz
  x,y,z
  -x,-y,z
  -y+1/2,x+1/2,z+1/2
  y+1/2,-x+1/2,z+1/2
  -x+1/2,y+1/2,-z+1/2
  x+1/2,-y+1/2,-z+1/2
  y,x,-z
  -y,-x,-z
  -x+1/2,-y+1/2,-z+1/2
  x+1/2,y+1/2,-z+1/2
  y,-x,-z
  -y,x,-z
  x,-y,z
  -x,y,z
  -y+1/2,-x+1/2,z+1/2
  y+1/2,x+1/2,z+1/2
_cell_length_a                    8.0356
_cell_length_b                    8.0356
_cell_length_c                    17.3203
_cell_angle_alpha                 90.0000
_cell_angle_beta                  90.0000
_cell_angle_gamma                 90.0000
loop_
_atom_site_label
_atom_site_type_symbol
_atom_site_fract_x
_atom_site_fract_y
_atom_site_fract_z
_atom_site_U_iso_or_equiv
_atom_site_adp_type
_atom_site_occupancy
Li0    Li    0.21489   0.24226   0.83917   0.00000  Uiso   1.00
Li16   Li    0.00000   0.50000   0.50583   0.00000  Uiso   1.00
P22    P     0.00000   0.50000   0.68555   0.00000  Uiso   1.00
Ge20   Ge    0.00000   0.00000   0.00000   0.00000  Uiso   1.00
S26    S     0.00000   0.71503   0.25164   0.00000  Uiso   1.00
S34    S     0.79140   0.50000   0.11760   0.00000  Uiso   1.00
S42    S     0.50000   0.26271   0.57004   0.00000  Uiso   1.00
loop_
_geom_bond_atom_site_label_1
_geom_bond_atom_site_label_2
_geom_bond_distance
_geom_bond_site_symmetry_2
_ccdc_geom_bond_type
P22    S26     2.073   3     S
P22    S26     2.073   4_455 S
P22    S34     2.048   3_545 S
P22    S34     2.048   4_465 S
Ge20   S42     2.260   3_544 S
Ge20   S42     2.260   4_454 S
Ge20   S42     2.260   6_455 S
Ge20   S42     2.260   5_545 S
S26    P22     2.073   3_554 S
S34    P22     2.048   3_654 S
S42    Ge20    2.260   3     S
