# generated using pymatgen
data_Li2GeS3
_symmetry_space_group_name_H-M   'P 1'
_cell_length_a   12.91320000
_cell_length_b   12.32180000
_cell_length_c   13.10600000
_cell_angle_alpha   90.00000000
_cell_angle_beta   88.24530000
_cell_angle_gamma   90.00000000
_symmetry_Int_Tables_number   1
_chemical_formula_structural   Li2GeS3
_chemical_formula_sum   'Li32 Ge16 S48'
_cell_volume   2084.36849523
_cell_formula_units_Z   16
loop_
 _symmetry_equiv_pos_site_id
 _symmetry_equiv_pos_as_xyz
  1  'x, y, z'
loop_
 _atom_site_type_symbol
 _atom_site_label
 _atom_site_symmetry_multiplicity
 _atom_site_fract_x
 _atom_site_fract_y
 _atom_site_fract_z
 _atom_site_occupancy
  Li  Li0  1  0.38645500  0.16138000  0.07168500  1.0
  Li  Li1  1  0.38645500  0.16138000  0.57168500  1.0
  Li  Li2  1  0.88645500  0.16138000  0.07168500  1.0
  Li  Li3  1  0.88645500  0.16138000  0.57168500  1.0
  Li  Li4  1  0.11354500  0.66138000  0.17831500  1.0
  Li  Li5  1  0.11354500  0.66138000  0.67831500  1.0
  Li  Li6  1  0.61354500  0.66138000  0.17831500  1.0
  Li  Li7  1  0.61354500  0.66138000  0.67831500  1.0
  Li  Li8  1  0.11354500  0.83862000  0.42831500  1.0
  Li  Li9  1  0.11354500  0.83862000  0.92831500  1.0
  Li  Li10  1  0.61354500  0.83862000  0.42831500  1.0
  Li  Li11  1  0.61354500  0.83862000  0.92831500  1.0
  Li  Li12  1  0.38645500  0.33862000  0.32168500  1.0
  Li  Li13  1  0.38645500  0.33862000  0.82168500  1.0
  Li  Li14  1  0.88645500  0.33862000  0.32168500  1.0
  Li  Li15  1  0.88645500  0.33862000  0.82168500  1.0
  Li  Li16  1  0.09842000  0.49792000  0.41293500  1.0
  Li  Li17  1  0.09842000  0.49792000  0.91293500  1.0
  Li  Li18  1  0.59842000  0.49792000  0.41293500  1.0
  Li  Li19  1  0.59842000  0.49792000  0.91293500  1.0
  Li  Li20  1  0.40158000  0.99792000  0.33706500  1.0
  Li  Li21  1  0.40158000  0.99792000  0.83706500  1.0
  Li  Li22  1  0.90158000  0.99792000  0.33706500  1.0
  Li  Li23  1  0.90158000  0.99792000  0.83706500  1.0
  Li  Li24  1  0.40158000  0.50208000  0.08706500  1.0
  Li  Li25  1  0.40158000  0.50208000  0.58706500  1.0
  Li  Li26  1  0.90158000  0.50208000  0.08706500  1.0
  Li  Li27  1  0.90158000  0.50208000  0.58706500  1.0
  Li  Li28  1  0.09842000  0.00208000  0.16293500  1.0
  Li  Li29  1  0.09842000  0.00208000  0.66293500  1.0
  Li  Li30  1  0.59842000  0.00208000  0.16293500  1.0
  Li  Li31  1  0.59842000  0.00208000  0.66293500  1.0
  Ge  Ge32  1  0.33575000  0.66641000  0.34546500  1.0
  Ge  Ge33  1  0.33575000  0.66641000  0.84546500  1.0
  Ge  Ge34  1  0.83575000  0.66641000  0.34546500  1.0
  Ge  Ge35  1  0.83575000  0.66641000  0.84546500  1.0
  Ge  Ge36  1  0.16425000  0.16641000  0.40453500  1.0
  Ge  Ge37  1  0.16425000  0.16641000  0.90453500  1.0
  Ge  Ge38  1  0.66425000  0.16641000  0.40453500  1.0
  Ge  Ge39  1  0.66425000  0.16641000  0.90453500  1.0
  Ge  Ge40  1  0.16425000  0.33359000  0.15453500  1.0
  Ge  Ge41  1  0.16425000  0.33359000  0.65453500  1.0
  Ge  Ge42  1  0.66425000  0.33359000  0.15453500  1.0
  Ge  Ge43  1  0.66425000  0.33359000  0.65453500  1.0
  Ge  Ge44  1  0.33575000  0.83359000  0.09546500  1.0
  Ge  Ge45  1  0.33575000  0.83359000  0.59546500  1.0
  Ge  Ge46  1  0.83575000  0.83359000  0.09546500  1.0
  Ge  Ge47  1  0.83575000  0.83359000  0.59546500  1.0
  S  S48  1  0.09501500  0.01650000  0.34738500  1.0
  S  S49  1  0.09501500  0.01650000  0.84738500  1.0
  S  S50  1  0.59501500  0.01650000  0.34738500  1.0
  S  S51  1  0.59501500  0.01650000  0.84738500  1.0
  S  S52  1  0.40498500  0.51650000  0.40261500  1.0
  S  S53  1  0.40498500  0.51650000  0.90261500  1.0
  S  S54  1  0.90498500  0.51650000  0.40261500  1.0
  S  S55  1  0.90498500  0.51650000  0.90261500  1.0
  S  S56  1  0.40498500  0.98350000  0.15261500  1.0
  S  S57  1  0.40498500  0.98350000  0.65261500  1.0
  S  S58  1  0.90498500  0.98350000  0.15261500  1.0
  S  S59  1  0.90498500  0.98350000  0.65261500  1.0
  S  S60  1  0.09501500  0.48350000  0.09738500  1.0
  S  S61  1  0.09501500  0.48350000  0.59738500  1.0
  S  S62  1  0.59501500  0.48350000  0.09738500  1.0
  S  S63  1  0.59501500  0.48350000  0.59738500  1.0
  S  S64  1  0.16598000  0.66917000  0.35080500  1.0
  S  S65  1  0.16598000  0.66917000  0.85080500  1.0
  S  S66  1  0.66598000  0.66917000  0.35080500  1.0
  S  S67  1  0.66598000  0.66917000  0.85080500  1.0
  S  S68  1  0.33402000  0.16917000  0.39919500  1.0
  S  S69  1  0.33402000  0.16917000  0.89919500  1.0
  S  S70  1  0.83402000  0.16917000  0.39919500  1.0
  S  S71  1  0.83402000  0.16917000  0.89919500  1.0
  S  S72  1  0.33402000  0.33083000  0.14919500  1.0
  S  S73  1  0.33402000  0.33083000  0.64919500  1.0
  S  S74  1  0.83402000  0.33083000  0.14919500  1.0
  S  S75  1  0.83402000  0.33083000  0.64919500  1.0
  S  S76  1  0.16598000  0.83083000  0.10080500  1.0
  S  S77  1  0.16598000  0.83083000  0.60080500  1.0
  S  S78  1  0.66598000  0.83083000  0.10080500  1.0
  S  S79  1  0.66598000  0.83083000  0.60080500  1.0
  S  S80  1  0.09425500  0.18567000  0.06975500  1.0
  S  S81  1  0.09425500  0.18567000  0.56975500  1.0
  S  S82  1  0.59425500  0.18567000  0.06975500  1.0
  S  S83  1  0.59425500  0.18567000  0.56975500  1.0
  S  S84  1  0.40574500  0.68567000  0.18024500  1.0
  S  S85  1  0.40574500  0.68567000  0.68024500  1.0
  S  S86  1  0.90574500  0.68567000  0.18024500  1.0
  S  S87  1  0.90574500  0.68567000  0.68024500  1.0
  S  S88  1  0.40574500  0.81433000  0.43024500  1.0
  S  S89  1  0.40574500  0.81433000  0.93024500  1.0
  S  S90  1  0.90574500  0.81433000  0.43024500  1.0
  S  S91  1  0.90574500  0.81433000  0.93024500  1.0
  S  S92  1  0.09425500  0.31433000  0.31975500  1.0
  S  S93  1  0.09425500  0.31433000  0.81975500  1.0
  S  S94  1  0.59425500  0.31433000  0.31975500  1.0
  S  S95  1  0.59425500  0.31433000  0.81975500  1.0
