# generated using pymatgen
data_Li4SiSnS6
_symmetry_space_group_name_H-M   'P 1'
_cell_length_a   10.60625273
_cell_length_b   15.13101582
_cell_length_c   12.84467548
_cell_angle_alpha   90.00000000
_cell_angle_beta   90.00000000
_cell_angle_gamma   79.65434481
_symmetry_Int_Tables_number   1
_chemical_formula_structural   Li4SiSnS6
_chemical_formula_sum   'Li32 Si8 Sn8 S48'
_cell_volume   2027.84388316
_cell_formula_units_Z   8
loop_
 _symmetry_equiv_pos_site_id
 _symmetry_equiv_pos_as_xyz
  1  'x, y, z'
loop_
 _atom_site_type_symbol
 _atom_site_label
 _atom_site_symmetry_multiplicity
 _atom_site_fract_x
 _atom_site_fract_y
 _atom_site_fract_z
 _atom_site_occupancy
  Li  Li0  1  0.00627537  0.01729395  0.16900060  1.0
  Li  Li1  1  0.00627537  0.01729395  0.66900059  1.0
  Li  Li2  1  0.00627537  0.51729395  0.16900060  1.0
  Li  Li3  1  0.00627537  0.51729395  0.66900060  1.0
  Li  Li4  1  0.23633863  0.47899855  0.41900010  1.0
  Li  Li5  1  0.23633863  0.47899855  0.91900010  1.0
  Li  Li6  1  0.23633863  0.97899855  0.41900010  1.0
  Li  Li7  1  0.23633863  0.97899855  0.91900010  1.0
  Li  Li8  1  0.67987569  0.18191219  0.17339704  1.0
  Li  Li9  1  0.67987569  0.18191219  0.67339704  1.0
  Li  Li10  1  0.67987569  0.68191219  0.17339704  1.0
  Li  Li11  1  0.67987569  0.68191219  0.67339704  1.0
  Li  Li12  1  0.57306514  0.07367335  0.42525804  1.0
  Li  Li13  1  0.57306514  0.07367335  0.92525805  1.0
  Li  Li14  1  0.57306514  0.57367335  0.42525805  1.0
  Li  Li15  1  0.57306514  0.57367335  0.92525804  1.0
  Li  Li16  1  0.00648978  0.26159457  0.16984475  1.0
  Li  Li17  1  0.00648978  0.26159457  0.66984475  1.0
  Li  Li18  1  0.00648978  0.76159457  0.16984475  1.0
  Li  Li19  1  0.00648978  0.76159457  0.66984475  1.0
  Li  Li20  1  0.23612122  0.23469793  0.41984475  1.0
  Li  Li21  1  0.23612122  0.23469793  0.91984475  1.0
  Li  Li22  1  0.23612122  0.73469793  0.41984475  1.0
  Li  Li23  1  0.23612122  0.73469793  0.91984475  1.0
  Li  Li24  1  0.66954486  0.42261965  0.17525805  1.0
  Li  Li25  1  0.66954486  0.42261965  0.67525804  1.0
  Li  Li26  1  0.66954486  0.92261965  0.17525805  1.0
  Li  Li27  1  0.66954486  0.92261965  0.67525805  1.0
  Li  Li28  1  0.56273431  0.31438031  0.42339704  1.0
  Li  Li29  1  0.56273431  0.31438031  0.92339704  1.0
  Li  Li30  1  0.56273431  0.81438031  0.42339704  1.0
  Li  Li31  1  0.56273431  0.81438031  0.92339704  1.0
  Si  Si32  1  0.88953408  0.15360373  0.42985281  1.0
  Si  Si33  1  0.88953408  0.15360373  0.92985281  1.0
  Si  Si34  1  0.88953408  0.65360373  0.42985281  1.0
  Si  Si35  1  0.88953408  0.65360373  0.92985281  1.0
  Si  Si36  1  0.35307692  0.34268927  0.17985281  1.0
  Si  Si37  1  0.35307692  0.34268927  0.67985281  1.0
  Si  Si38  1  0.35307692  0.84268927  0.17985281  1.0
  Si  Si39  1  0.35307692  0.84268927  0.67985281  1.0
  Sn  Sn40  1  0.36313160  0.09259037  0.18490280  1.0
  Sn  Sn41  1  0.36313160  0.09259037  0.68490280  1.0
  Sn  Sn42  1  0.36313160  0.59259037  0.18490280  1.0
  Sn  Sn43  1  0.36313160  0.59259037  0.68490280  1.0
  Sn  Sn44  1  0.87947740  0.40370213  0.43490280  1.0
  Sn  Sn45  1  0.87947740  0.40370213  0.93490280  1.0
  Sn  Sn46  1  0.87947740  0.90370213  0.43490280  1.0
  Sn  Sn47  1  0.87947740  0.90370213  0.93490280  1.0
  S  S48  1  0.89625840  0.15382194  0.09317865  1.0
  S  S49  1  0.89625840  0.15382194  0.59317865  1.0
  S  S50  1  0.89625840  0.65382195  0.09317865  1.0
  S  S51  1  0.89625840  0.65382195  0.59317865  1.0
  S  S52  1  0.00192170  0.02388516  0.36842673  1.0
  S  S53  1  0.00192170  0.02388516  0.86842673  1.0
  S  S54  1  0.00192170  0.52388516  0.36842673  1.0
  S  S55  1  0.00192170  0.52388516  0.86842673  1.0
  S  S56  1  0.56917419  0.06707264  0.11260008  1.0
  S  S57  1  0.56917419  0.06707264  0.61260008  1.0
  S  S58  1  0.56917419  0.56707264  0.11260008  1.0
  S  S59  1  0.56917419  0.56707264  0.61260008  1.0
  S  S60  1  0.34918129  0.09317686  0.36911839  1.0
  S  S61  1  0.34918129  0.09317686  0.86911839  1.0
  S  S62  1  0.34918129  0.59317686  0.36911839  1.0
  S  S63  1  0.34918129  0.59317686  0.86911839  1.0
  S  S64  1  0.24068730  0.47240784  0.11842573  1.0
  S  S65  1  0.24068730  0.47240784  0.61842573  1.0
  S  S66  1  0.24068730  0.97240784  0.11842573  1.0
  S  S67  1  0.24068730  0.97240784  0.61842573  1.0
  S  S68  1  0.70775086  0.17767658  0.36437667  1.0
  S  S69  1  0.70775086  0.17767658  0.86437667  1.0
  S  S70  1  0.70775086  0.67767659  0.36437667  1.0
  S  S71  1  0.70775086  0.67767659  0.86437667  1.0
  S  S72  1  0.89342971  0.40311514  0.11911789  1.0
  S  S73  1  0.89342971  0.40311514  0.61911789  1.0
  S  S74  1  0.89342971  0.90311514  0.11911789  1.0
  S  S75  1  0.89342971  0.90311514  0.61911789  1.0
  S  S76  1  0.00339877  0.25334863  0.36781796  1.0
  S  S77  1  0.00339877  0.25334863  0.86781796  1.0
  S  S78  1  0.00339877  0.75334864  0.36781796  1.0
  S  S79  1  0.00339877  0.75334864  0.86781796  1.0
  S  S80  1  0.53486014  0.31861592  0.11437717  1.0
  S  S81  1  0.53486014  0.31861592  0.61437717  1.0
  S  S82  1  0.53486014  0.81861592  0.11437717  1.0
  S  S83  1  0.53486014  0.81861592  0.61437717  1.0
  S  S84  1  0.34635260  0.34247056  0.34317916  1.0
  S  S85  1  0.34635260  0.34247056  0.84317916  1.0
  S  S86  1  0.34635260  0.84247056  0.34317916  1.0
  S  S87  1  0.34635260  0.84247056  0.84317916  1.0
  S  S88  1  0.23921223  0.24294387  0.11781796  1.0
  S  S89  1  0.23921223  0.24294387  0.61781796  1.0
  S  S90  1  0.23921223  0.74294387  0.11781796  1.0
  S  S91  1  0.23921223  0.74294387  0.61781796  1.0
  S  S92  1  0.67343781  0.42921986  0.36260158  1.0
  S  S93  1  0.67343781  0.42921986  0.86260158  1.0
  S  S94  1  0.67343781  0.92921986  0.36260158  1.0
  S  S95  1  0.67343781  0.92921986  0.86260158  1.0
