data_8_99_sym
_audit_creation_date              2024-04-01
_audit_creation_method            'Materials Studio'
_symmetry_space_group_name_H-M    'ABM2'
_symmetry_Int_Tables_number       39
_symmetry_cell_setting            orthorhombic
loop_
_symmetry_equiv_pos_as_xyz
  x,y,z
  -x,-y,z
  x,-y+1/2,z
  -x,y+1/2,z
  x,y+1/2,z+1/2
  -x,-y+1/2,z+1/2
  x,-y,z+1/2
  -x,y,z+1/2
_cell_length_a                    6.8057
_cell_length_b                    12.3009
_cell_length_c                    6.2486
_cell_angle_alpha                 90.0000
_cell_angle_beta                  90.0000
_cell_angle_gamma                 90.0000
loop_
_atom_site_label
_atom_site_type_symbol
_atom_site_fract_x
_atom_site_fract_y
_atom_site_fract_z
_atom_site_U_iso_or_equiv
_atom_site_adp_type
_atom_site_occupancy
Li0    Li    0.33079   0.40827  -0.87840   0.00000  Uiso   1.00
S12    S     0.32100   0.09977  -0.26101   0.00000  Uiso   1.00
Ge8    Ge    0.17279   0.25000  -0.35789   0.00000  Uiso   1.00
S20    S     0.14801   0.25000  -0.73286   0.00000  Uiso   1.00
loop_
_geom_bond_atom_site_label_1
_geom_bond_atom_site_label_2
_geom_bond_distance
_geom_bond_site_symmetry_2
_ccdc_geom_bond_type
S12    Ge8     2.191   .     S
Ge8    S12     2.191   3     S
Ge8    S20     2.349   .     S
Ge8    S20     2.319   6     S
S20    Ge8     2.319   6_554 S
