data_48_contcar\(2)
_audit_creation_date              2024-02-08
_audit_creation_method            'Materials Studio'
_symmetry_space_group_name_H-M    'P1'
_symmetry_Int_Tables_number       1
_symmetry_cell_setting            triclinic
loop_
_symmetry_equiv_pos_as_xyz
  x,y,z
_cell_length_a                    13.2928
_cell_length_b                    12.7529
_cell_length_c                    13.8726
_cell_angle_alpha                 84.2698
_cell_angle_beta                  96.8042
_cell_angle_gamma                 116.8148
loop_
_atom_site_label
_atom_site_type_symbol
_atom_site_fract_x
_atom_site_fract_y
_atom_site_fract_z
_atom_site_U_iso_or_equiv
_atom_site_adp_type
_atom_site_occupancy
Li1    Li    0.36272   0.09517   0.27876   0.00000  Uiso   1.00
Li2    Li    0.23956   0.36282   0.63603   0.00000  Uiso   1.00
Li3    Li    0.34927   0.36020   0.05171   0.00000  Uiso   1.00
Li4    Li    0.38638   0.34066   0.29688   0.00000  Uiso   1.00
Li5    Li    0.47015   0.19519   0.01034   0.00000  Uiso   1.00
Li6    Li    0.26932   0.02877   0.85879   0.00000  Uiso   1.00
Li7    Li    0.39243   0.19054   0.60023   0.00000  Uiso   1.00
Li8    Li    0.10871   0.19544   0.84811   0.00000  Uiso   1.00
Si9    Si    0.11316   0.36165   0.24642   0.00000  Uiso   1.00
Si10   Si   -0.05168   0.36983   0.86632   0.00000  Uiso   1.00
Ge11   Ge    0.14578   0.11745   0.38987   0.00000  Uiso   1.00
Ge12   Ge    0.07603   0.03309   0.64147   0.00000  Uiso   1.00
S13    S     0.27000   0.41473   0.19169   0.00000  Uiso   1.00
S14    S     0.24136   0.03445   0.68390   0.00000  Uiso   1.00
S15    S    -0.04044   0.25819   0.16566   0.00000  Uiso   1.00
S16    S    -0.19423   0.22096   0.91926   0.00000  Uiso   1.00
S17    S     0.07625   0.01618   0.25029   0.00000  Uiso   1.00
S18    S     0.07026   0.19604   0.67112   0.00000  Uiso   1.00
S19    S     0.09958   0.35891   0.91480   0.00000  Uiso   1.00
S20    S     0.32734   0.17256   0.41922   0.00000  Uiso   1.00
S21    S    -0.07578   0.37081   0.70405   0.00000  Uiso   1.00
S22    S     0.10645   0.27728   0.39163   0.00000  Uiso   1.00
S23    S    -0.05382   0.01932   0.91979   0.00000  Uiso   1.00
S24    S     0.01680   0.48019   0.48474   0.00000  Uiso   1.00
Li25   Li    0.86272   0.09517   0.27876   0.00000  Uiso   1.00
Li26   Li    0.73956   0.36282   0.63603   0.00000  Uiso   1.00
Li27   Li    0.84927   0.36020   0.05171   0.00000  Uiso   1.00
Li28   Li    0.88638   0.34066   0.29688   0.00000  Uiso   1.00
Li29   Li    0.97015   0.19519   0.01034   0.00000  Uiso   1.00
Li30   Li    0.76932   0.02877   0.85879   0.00000  Uiso   1.00
Li31   Li    0.89243   0.19054   0.60023   0.00000  Uiso   1.00
Li32   Li    0.60871   0.19544   0.84811   0.00000  Uiso   1.00
Si33   Si    0.61316   0.36165   0.24642   0.00000  Uiso   1.00
Si34   Si    0.44832   0.36983   0.86632   0.00000  Uiso   1.00
Ge35   Ge    0.64578   0.11745   0.38987   0.00000  Uiso   1.00
Ge36   Ge    0.57603   0.03309   0.64147   0.00000  Uiso   1.00
S37    S     0.77000   0.41473   0.19169   0.00000  Uiso   1.00
S38    S     0.74136   0.03445   0.68390   0.00000  Uiso   1.00
S39    S     0.45956   0.25819   0.16566   0.00000  Uiso   1.00
S40    S     0.30577   0.22096   0.91926   0.00000  Uiso   1.00
S41    S     0.57625   0.01618   0.25029   0.00000  Uiso   1.00
S42    S     0.57026   0.19604   0.67112   0.00000  Uiso   1.00
S43    S     0.59958   0.35891   0.91480   0.00000  Uiso   1.00
S44    S     0.82734   0.17256   0.41922   0.00000  Uiso   1.00
S45    S     0.42422   0.37081   0.70405   0.00000  Uiso   1.00
S46    S     0.60645   0.27728   0.39163   0.00000  Uiso   1.00
S47    S     0.44618   0.01932   0.91979   0.00000  Uiso   1.00
S48    S     0.51680   0.48019   0.48474   0.00000  Uiso   1.00
Li49   Li    0.36272   0.59517   0.27876   0.00000  Uiso   1.00
Li50   Li    0.23956   0.86282   0.63603   0.00000  Uiso   1.00
Li51   Li    0.34927   0.86020   0.05171   0.00000  Uiso   1.00
Li52   Li    0.38638   0.84066   0.29688   0.00000  Uiso   1.00
Li53   Li    0.47015   0.69519   0.01034   0.00000  Uiso   1.00
Li54   Li    0.26932   0.52877   0.85879   0.00000  Uiso   1.00
Li55   Li    0.39243   0.69054   0.60023   0.00000  Uiso   1.00
Li56   Li    0.10871   0.69544   0.84811   0.00000  Uiso   1.00
Si57   Si    0.11316   0.86165   0.24642   0.00000  Uiso   1.00
Si58   Si   -0.05168   0.86983   0.86632   0.00000  Uiso   1.00
Ge59   Ge    0.14578   0.61745   0.38987   0.00000  Uiso   1.00
Ge60   Ge    0.07603   0.53309   0.64147   0.00000  Uiso   1.00
S61    S     0.27000   0.91473   0.19169   0.00000  Uiso   1.00
S62    S     0.24136   0.53445   0.68390   0.00000  Uiso   1.00
S63    S    -0.04044   0.75819   0.16566   0.00000  Uiso   1.00
S64    S    -0.19423   0.72096   0.91926   0.00000  Uiso   1.00
S65    S     0.07625   0.51618   0.25029   0.00000  Uiso   1.00
S66    S     0.07026   0.69604   0.67112   0.00000  Uiso   1.00
S67    S     0.09958   0.85891   0.91480   0.00000  Uiso   1.00
S68    S     0.32734   0.67256   0.41922   0.00000  Uiso   1.00
S69    S    -0.07578   0.87081   0.70405   0.00000  Uiso   1.00
S70    S     0.10645   0.77728   0.39163   0.00000  Uiso   1.00
S71    S    -0.05382   0.51932   0.91979   0.00000  Uiso   1.00
S72    S     0.01680   0.98019   0.48474   0.00000  Uiso   1.00
Li73   Li    0.86272   0.59517   0.27876   0.00000  Uiso   1.00
Li74   Li    0.73956   0.86282   0.63603   0.00000  Uiso   1.00
Li75   Li    0.84927   0.86020   0.05171   0.00000  Uiso   1.00
Li76   Li    0.88638   0.84066   0.29688   0.00000  Uiso   1.00
Li77   Li    0.97015   0.69519   0.01034   0.00000  Uiso   1.00
Li78   Li    0.76932   0.52877   0.85879   0.00000  Uiso   1.00
Li79   Li    0.89243   0.69054   0.60023   0.00000  Uiso   1.00
Li80   Li    0.60871   0.69544   0.84811   0.00000  Uiso   1.00
Si81   Si    0.61316   0.86165   0.24642   0.00000  Uiso   1.00
Si82   Si    0.44832   0.86983   0.86632   0.00000  Uiso   1.00
Ge83   Ge    0.64578   0.61745   0.38987   0.00000  Uiso   1.00
Ge84   Ge    0.57603   0.53309   0.64147   0.00000  Uiso   1.00
S85    S     0.77000   0.91473   0.19169   0.00000  Uiso   1.00
S86    S     0.74136   0.53445   0.68390   0.00000  Uiso   1.00
S87    S     0.45956   0.75819   0.16566   0.00000  Uiso   1.00
S88    S     0.30577   0.72096   0.91926   0.00000  Uiso   1.00
S89    S     0.57625   0.51618   0.25029   0.00000  Uiso   1.00
S90    S     0.57026   0.69604   0.67112   0.00000  Uiso   1.00
S91    S     0.59958   0.85891   0.91480   0.00000  Uiso   1.00
S92    S     0.82734   0.67256   0.41922   0.00000  Uiso   1.00
S93    S     0.42422   0.87081   0.70405   0.00000  Uiso   1.00
S94    S     0.60645   0.77728   0.39163   0.00000  Uiso   1.00
S95    S     0.44618   0.51932   0.91979   0.00000  Uiso   1.00
S96    S     0.51680   0.98019   0.48474   0.00000  Uiso   1.00
loop_
_geom_bond_atom_site_label_1
_geom_bond_atom_site_label_2
_geom_bond_distance
_geom_bond_site_symmetry_2
_ccdc_geom_bond_type
Si9    S13     2.093   .     S
Si9    S15     2.118   .     S
Si9    S65     2.242   .     S
Si9    S22     2.179   .     S
Si10   S16     2.131   .     S
Si10   S19     2.104   .     S
Si10   S21     2.236   .     S
Si10   S71     2.126   .     S
Ge11   S17     2.296   .     S
Ge11   S20     2.186   .     S
Ge11   S22     2.324   .     S
Ge11   S72     2.259   1_545 S
Ge12   S14     2.200   .     S
Ge12   S18     2.194   .     S
Ge12   S69     2.323   1_545 S
Ge12   S72     2.283   1_545 S
S17    Si57    2.242   1_545 S
S21    Ge60    2.323   .     S
S23    Si58    2.126   1_545 S
S24    Ge59    2.259   .     S
S24    Ge60    2.283   .     S
Si33   S37     2.093   .     S
Si33   S39     2.118   .     S
Si33   S89     2.242   .     S
Si33   S46     2.179   .     S
Si34   S40     2.131   .     S
Si34   S43     2.104   .     S
Si34   S45     2.236   .     S
Si34   S95     2.126   .     S
Ge35   S41     2.296   .     S
Ge35   S44     2.186   .     S
Ge35   S46     2.324   .     S
Ge35   S96     2.259   1_545 S
Ge36   S38     2.200   .     S
Ge36   S42     2.194   .     S
Ge36   S93     2.323   1_545 S
Ge36   S96     2.283   1_545 S
S41    Si81    2.242   1_545 S
S45    Ge84    2.323   .     S
S47    Si82    2.126   1_545 S
S48    Ge83    2.259   .     S
S48    Ge84    2.283   .     S
Si57   S61     2.093   .     S
Si57   S63     2.118   .     S
Si57   S17     2.242   1_565 S
Si57   S70     2.179   .     S
Si58   S64     2.131   .     S
Si58   S67     2.104   .     S
Si58   S69     2.236   .     S
Si58   S23     2.126   1_565 S
Ge59   S65     2.296   .     S
Ge59   S68     2.186   .     S
Ge59   S70     2.324   .     S
Ge60   S62     2.200   .     S
Ge60   S66     2.194   .     S
S69    Ge12    2.323   1_565 S
S72    Ge11    2.259   1_565 S
S72    Ge12    2.283   1_565 S
Si81   S85     2.093   .     S
Si81   S87     2.118   .     S
Si81   S41     2.242   1_565 S
Si81   S94     2.179   .     S
Si82   S88     2.131   .     S
Si82   S91     2.104   .     S
Si82   S93     2.236   .     S
Si82   S47     2.126   1_565 S
Ge83   S89     2.296   .     S
Ge83   S92     2.186   .     S
Ge83   S94     2.324   .     S
Ge84   S86     2.200   .     S
Ge84   S90     2.194   .     S
S93    Ge36    2.323   1_565 S
S96    Ge35    2.259   1_565 S
S96    Ge36    2.283   1_565 S
