# generated using pymatgen
data_Na3YBr6
_symmetry_space_group_name_H-M   'P 1'
_cell_length_a   7.75140521
_cell_length_b   10.90564841
_cell_length_c   7.24003858
_cell_angle_alpha   89.65359353
_cell_angle_beta   90.01095008
_cell_angle_gamma   90.00158499
_symmetry_Int_Tables_number   1
_chemical_formula_structural   Na3YBr6
_chemical_formula_sum   'Na6 Y2 Br12'
_cell_volume   612.01894770
_cell_formula_units_Z   2
loop_
 _symmetry_equiv_pos_site_id
 _symmetry_equiv_pos_as_xyz
  1  'x, y, z'
loop_
 _atom_site_type_symbol
 _atom_site_label
 _atom_site_symmetry_multiplicity
 _atom_site_fract_x
 _atom_site_fract_y
 _atom_site_fract_z
 _atom_site_occupancy
  Na  Na0  1  0.52802084  0.86216671  0.57996830  1
  Na  Na1  1  0.02796303  0.87116597  0.15369548  1
  Na  Na2  1  0.20364045  0.36175680  0.07962541  1
  Na  Na3  1  0.70389007  0.37149895  0.65276699  1
  Na  Na4  1  0.61546002  0.11594117  0.11703830  1
  Na  Na5  1  0.11690262  0.61660137  0.61639565  1
  Y  Y6  1  0.61641634  0.61654594  0.11724695  1
  Y  Y7  1  0.11662031  0.11702598  0.61617526  1
  Br  Br8  1  0.29840937  0.04362402  0.30368413  1
  Br  Br9  1  0.79786494  0.68873310  0.43138994  1
  Br  Br10  1  0.43581472  0.54481445  0.80249118  1
  Br  Br11  1  0.93681363  0.18862004  0.93134161  1
  Br  Br12  1  0.31155556  0.69474650  0.29027683  1
  Br  Br13  1  0.81172897  0.03837175  0.44276529  1
  Br  Br14  1  0.42279251  0.19470709  0.78708352  1
  Br  Br15  1  0.92169035  0.53768267  0.94486913  1
  Br  Br16  1  0.67758984  0.85279669  0.96885749  1
  Br  Br17  1  0.17571148  0.87968450  0.76371266  1
  Br  Br18  1  0.05369667  0.35344145  0.46855717  1
  Br  Br19  1  0.55634128  0.37895085  0.26093772  1
