data_Na3YBr6_49_contcar_sym
_audit_creation_date              2025-07-02
_audit_creation_method            'Materials Studio'
_symmetry_space_group_name_H-M    'P-31C'
_symmetry_Int_Tables_number       163
_symmetry_cell_setting            trigonal
loop_
_symmetry_equiv_pos_as_xyz
  x,y,z
  -y,x-y,z
  -x+y,-x,z
  -y,-x,-z+1/2
  -x+y,y,-z+1/2
  x,x-y,-z+1/2
  -x,-y,-z
  y,-x+y,-z
  x-y,x,-z
  y,x,z+1/2
  x-y,-y,z+1/2
  -x,-x+y,z+1/2
_cell_length_a                    7.4241
_cell_length_b                    7.4241
_cell_length_c                    13.6258
_cell_angle_alpha                 90.0000
_cell_angle_beta                  90.0000
_cell_angle_gamma                 120.0000
loop_
_atom_site_label
_atom_site_type_symbol
_atom_site_fract_x
_atom_site_fract_y
_atom_site_fract_z
_atom_site_U_iso_or_equiv
_atom_site_adp_type
_atom_site_occupancy
Br8    Br   -0.03809  -0.35552   0.62692   0.00000  Uiso   1.00
Na0    Na   -0.00000  -0.00000   1.25000   0.00000  Uiso   1.00
Na2    Na    0.33333  -0.33333   0.53521   0.00000  Uiso   1.00
Y6     Y     0.33333  -0.33333   1.25000   0.00000  Uiso   1.00
loop_
_geom_bond_atom_site_label_1
_geom_bond_atom_site_label_2
_geom_bond_distance
_geom_bond_site_symmetry_2
_ccdc_geom_bond_type
Br8    Y6      2.809   7_547 S
Y6     Br8     2.809   12    S
Y6     Br8     2.809   11_545 S
Y6     Br8     2.809   10_655 S
Y6     Br8     2.809   9_557 S
Y6     Br8     2.809   8_657 S
Y6     Br8     2.809   7_547 S
