# generated using pymatgen
data_Li3YCl6
_symmetry_space_group_name_H-M   'P 1'
_cell_length_a   11.29432288
_cell_length_b   11.27895039
_cell_length_c   6.31079044
_cell_angle_alpha   90.14956625
_cell_angle_beta   89.67874169
_cell_angle_gamma   119.79338789
_symmetry_Int_Tables_number   1
_chemical_formula_structural   Li3YCl6
_chemical_formula_sum   'Li9 Y3 Cl18'
_cell_volume   697.64882185
_cell_formula_units_Z   3
loop_
 _symmetry_equiv_pos_site_id
 _symmetry_equiv_pos_as_xyz
  1  'x, y, z'
loop_
 _atom_site_type_symbol
 _atom_site_label
 _atom_site_symmetry_multiplicity
 _atom_site_fract_x
 _atom_site_fract_y
 _atom_site_fract_z
 _atom_site_occupancy
  Li  Li0  1  0.16395772  0.44685082  0.12214041  1
  Li  Li1  1  0.78343761  0.76737109  0.12872435  1
  Li  Li2  1  0.46787791  0.09146335  0.08765897  1
  Li  Li3  1  0.15868299  0.76392642  0.12392465  1
  Li  Li4  1  0.45280657  0.41697818  0.12720401  1
  Li  Li5  1  0.79487423  0.08339769  0.10921286  1
  Li  Li6  1  0.80848987  0.08690467  0.61724103  1
  Li  Li7  1  0.13557934  0.78209981  0.61871699  1
  Li  Li8  1  0.67912730  0.53595401  0.67670012  1
  Y  Y9  1  0.46130664  0.75148720  0.61053315  1
  Y  Y10  1  0.80718327  0.41579042  0.08452521  1
  Y  Y11  1  0.13215134  0.09105099  0.12942236  1
  Cl  Cl12  1  0.02090936  0.85433003  0.34200837  1
  Cl  Cl13  1  0.36440822  0.19777174  0.32620520  1
  Cl  Cl14  1  0.00533389  0.19077184  0.35671273  1
  Cl  Cl15  1  0.24308485  0.31841754  0.91091643  1
  Cl  Cl16  1  0.90254551  0.97269474  0.89842664  1
  Cl  Cl17  1  0.23862427  0.96788790  0.88917165  1
  Cl  Cl18  1  0.57665164  0.64514472  0.85935637  1
  Cl  Cl19  1  0.58745153  0.98146988  0.84255669  1
  Cl  Cl20  1  0.23804872  0.65389341  0.84803117  1
  Cl  Cl21  1  0.69127613  0.53855244  0.30656256  1
  Cl  Cl22  1  0.68447976  0.19233203  0.31271197  1
  Cl  Cl23  1  0.03151930  0.53930316  0.30949953  1
  Cl  Cl24  1  0.90392788  0.63679349  0.83530570  1
  Cl  Cl25  1  0.58168170  0.32019322  0.85843499  1
  Cl  Cl26  1  0.90884487  0.29443085  0.85946731  1
  Cl  Cl27  1  0.36284424  0.53792946  0.36237275  1
  Cl  Cl28  1  0.69032151  0.87686038  0.37726255  1
  Cl  Cl29  1  0.34282284  0.86144953  0.38249626  1
