data_186_contcar
_audit_creation_date              2024-02-08
_audit_creation_method            'Materials Studio'
_symmetry_space_group_name_H-M    'P1'
_symmetry_Int_Tables_number       1
_symmetry_cell_setting            triclinic
loop_
_symmetry_equiv_pos_as_xyz
  x,y,z
_cell_length_a                    11.4989
_cell_length_b                    13.5573
_cell_length_c                    13.2328
_cell_angle_alpha                 93.2384
_cell_angle_beta                  86.9526
_cell_angle_gamma                 91.2071
loop_
_atom_site_label
_atom_site_type_symbol
_atom_site_fract_x
_atom_site_fract_y
_atom_site_fract_z
_atom_site_U_iso_or_equiv
_atom_site_adp_type
_atom_site_occupancy
Li1    Li    0.39974   0.07472   0.09248   0.00000  Uiso   1.00
Li2    Li    0.19297   0.16582   0.44465   0.00000  Uiso   1.00
Li3    Li    0.51500   0.16148   0.33368   0.00000  Uiso   1.00
Li4    Li    0.07751   0.07923   0.20360   0.00000  Uiso   1.00
Li5    Li    0.89976   0.32472   0.09246   0.00000  Uiso   1.00
Li6    Li    0.69295   0.41583   0.44465   0.00000  Uiso   1.00
Li7    Li    0.01496   0.41150   0.33368   0.00000  Uiso   1.00
Li8    Li    0.57752   0.32924   0.20358   0.00000  Uiso   1.00
Si9    Si    0.21599   0.32494   0.19247   0.00000  Uiso   1.00
Si10   Si    0.37682   0.41581   0.34456   0.00000  Uiso   1.00
Si11   Si    0.71605   0.07495   0.19246   0.00000  Uiso   1.00
Si12   Si    0.87682   0.16580   0.34456   0.00000  Uiso   1.00
S13    S     0.07534   0.40560   0.14946   0.00000  Uiso   1.00
S14    S     0.51752   0.33502   0.38717   0.00000  Uiso   1.00
S15    S     0.38008   0.41112   0.17697   0.00000  Uiso   1.00
S16    S     0.21235   0.32997   0.36008   0.00000  Uiso   1.00
S17    S     0.22768   0.18174   0.12713   0.00000  Uiso   1.00
S18    S     0.36480   0.55908   0.41030   0.00000  Uiso   1.00
S19    S     0.57537   0.15560   0.14947   0.00000  Uiso   1.00
S20    S     1.01753   0.08503   0.38717   0.00000  Uiso   1.00
S21    S     0.88013   0.16113   0.17698   0.00000  Uiso   1.00
S22    S     0.71236   0.07994   0.36008   0.00000  Uiso   1.00
S23    S     0.72770  -0.06824   0.12706   0.00000  Uiso   1.00
S24    S     0.86477   0.30907   0.41027   0.00000  Uiso   1.00
Li25   Li    0.39974   0.57472   0.09248   0.00000  Uiso   1.00
Li26   Li    0.19297   0.66582   0.44465   0.00000  Uiso   1.00
Li27   Li    0.51500   0.66148   0.33368   0.00000  Uiso   1.00
Li28   Li    0.07751   0.57923   0.20360   0.00000  Uiso   1.00
Li29   Li    0.89976   0.82472   0.09246   0.00000  Uiso   1.00
Li30   Li    0.69295   0.91583   0.44465   0.00000  Uiso   1.00
Li31   Li    0.01496   0.91150   0.33368   0.00000  Uiso   1.00
Li32   Li    0.57752   0.82924   0.20358   0.00000  Uiso   1.00
Si33   Si    0.21599   0.82494   0.19247   0.00000  Uiso   1.00
Si34   Si    0.37682   0.91581   0.34456   0.00000  Uiso   1.00
Si35   Si    0.71605   0.57495   0.19246   0.00000  Uiso   1.00
Si36   Si    0.87682   0.66580   0.34456   0.00000  Uiso   1.00
S37    S     0.07534   0.90560   0.14946   0.00000  Uiso   1.00
S38    S     0.51752   0.83502   0.38717   0.00000  Uiso   1.00
S39    S     0.38008   0.91112   0.17697   0.00000  Uiso   1.00
S40    S     0.21235   0.82997   0.36008   0.00000  Uiso   1.00
S41    S     0.22768   0.68174   0.12713   0.00000  Uiso   1.00
S42    S     0.36480   1.05908   0.41030   0.00000  Uiso   1.00
S43    S     0.57537   0.65560   0.14947   0.00000  Uiso   1.00
S44    S     1.01753   0.58503   0.38717   0.00000  Uiso   1.00
S45    S     0.88013   0.66113   0.17698   0.00000  Uiso   1.00
S46    S     0.71236   0.57994   0.36008   0.00000  Uiso   1.00
S47    S     0.72770   0.43176   0.12706   0.00000  Uiso   1.00
S48    S     0.86477   0.80907   0.41027   0.00000  Uiso   1.00
Li49   Li    0.39974   0.07472   0.59248   0.00000  Uiso   1.00
Li50   Li    0.19297   0.16582   0.94465   0.00000  Uiso   1.00
Li51   Li    0.51500   0.16148   0.83368   0.00000  Uiso   1.00
Li52   Li    0.07751   0.07923   0.70360   0.00000  Uiso   1.00
Li53   Li    0.89976   0.32472   0.59246   0.00000  Uiso   1.00
Li54   Li    0.69295   0.41583   0.94465   0.00000  Uiso   1.00
Li55   Li    0.01496   0.41150   0.83368   0.00000  Uiso   1.00
Li56   Li    0.57752   0.32924   0.70358   0.00000  Uiso   1.00
Si57   Si    0.21599   0.32494   0.69247   0.00000  Uiso   1.00
Si58   Si    0.37682   0.41581   0.84456   0.00000  Uiso   1.00
Si59   Si    0.71605   0.07495   0.69246   0.00000  Uiso   1.00
Si60   Si    0.87682   0.16580   0.84456   0.00000  Uiso   1.00
S61    S     0.07534   0.40560   0.64946   0.00000  Uiso   1.00
S62    S     0.51752   0.33502   0.88717   0.00000  Uiso   1.00
S63    S     0.38008   0.41112   0.67697   0.00000  Uiso   1.00
S64    S     0.21235   0.32997   0.86008   0.00000  Uiso   1.00
S65    S     0.22768   0.18174   0.62713   0.00000  Uiso   1.00
S66    S     0.36480   0.55908   0.91030   0.00000  Uiso   1.00
S67    S     0.57537   0.15560   0.64947   0.00000  Uiso   1.00
S68    S     1.01753   0.08503   0.88717   0.00000  Uiso   1.00
S69    S     0.88013   0.16113   0.67698   0.00000  Uiso   1.00
S70    S     0.71236   0.07994   0.86008   0.00000  Uiso   1.00
S71    S     0.72770  -0.06824   0.62706   0.00000  Uiso   1.00
S72    S     0.86477   0.30907   0.91027   0.00000  Uiso   1.00
Li73   Li    0.39974   0.57472   0.59248   0.00000  Uiso   1.00
Li74   Li    0.19297   0.66582   0.94465   0.00000  Uiso   1.00
Li75   Li    0.51500   0.66148   0.83368   0.00000  Uiso   1.00
Li76   Li    0.07751   0.57923   0.70360   0.00000  Uiso   1.00
Li77   Li    0.89976   0.82472   0.59246   0.00000  Uiso   1.00
Li78   Li    0.69295   0.91583   0.94465   0.00000  Uiso   1.00
Li79   Li    0.01496   0.91150   0.83368   0.00000  Uiso   1.00
Li80   Li    0.57752   0.82924   0.70358   0.00000  Uiso   1.00
Si81   Si    0.21599   0.82494   0.69247   0.00000  Uiso   1.00
Si82   Si    0.37682   0.91581   0.84456   0.00000  Uiso   1.00
Si83   Si    0.71605   0.57495   0.69246   0.00000  Uiso   1.00
Si84   Si    0.87682   0.66580   0.84456   0.00000  Uiso   1.00
S85    S     0.07534   0.90560   0.64946   0.00000  Uiso   1.00
S86    S     0.51752   0.83502   0.88717   0.00000  Uiso   1.00
S87    S     0.38008   0.91112   0.67697   0.00000  Uiso   1.00
S88    S     0.21235   0.82997   0.86008   0.00000  Uiso   1.00
S89    S     0.22768   0.68174   0.62713   0.00000  Uiso   1.00
S90    S     0.36480   1.05908   0.91030   0.00000  Uiso   1.00
S91    S     0.57537   0.65560   0.64947   0.00000  Uiso   1.00
S92    S     1.01753   0.58503   0.88717   0.00000  Uiso   1.00
S93    S     0.88013   0.66113   0.67698   0.00000  Uiso   1.00
S94    S     0.71236   0.57994   0.86008   0.00000  Uiso   1.00
S95    S     0.72770   0.43176   0.62706   0.00000  Uiso   1.00
S96    S     0.86477   0.80907   0.91027   0.00000  Uiso   1.00
loop_
_geom_bond_atom_site_label_1
_geom_bond_atom_site_label_2
_geom_bond_distance
_geom_bond_site_symmetry_2
_ccdc_geom_bond_type
Si9    S13     2.092   .     S
Si9    S15     2.205   .     S
Si9    S16     2.213   .     S
Si9    S17     2.084   .     S
Si10   S14     2.092   .     S
Si10   S15     2.213   .     S
Si10   S16     2.206   .     S
Si10   S18     2.087   .     S
Si11   S19     2.092   .     S
Si11   S21     2.204   .     S
Si11   S22     2.213   .     S
Si11   S23     2.084   .     S
Si12   S20     2.092   .     S
Si12   S21     2.213   .     S
Si12   S22     2.206   .     S
Si12   S24     2.087   .     S
Si33   S37     2.092   .     S
Si33   S39     2.205   .     S
Si33   S40     2.213   .     S
Si33   S41     2.084   .     S
Si34   S38     2.092   .     S
Si34   S39     2.213   .     S
Si34   S40     2.206   .     S
Si34   S42     2.087   .     S
Si35   S43     2.092   .     S
Si35   S45     2.204   .     S
Si35   S46     2.213   .     S
Si35   S47     2.084   .     S
Si36   S44     2.092   .     S
Si36   S45     2.213   .     S
Si36   S46     2.206   .     S
Si36   S48     2.087   .     S
Si57   S61     2.092   .     S
Si57   S63     2.205   .     S
Si57   S64     2.213   .     S
Si57   S65     2.084   .     S
Si58   S62     2.092   .     S
Si58   S63     2.213   .     S
Si58   S64     2.206   .     S
Si58   S66     2.087   .     S
Si59   S67     2.092   .     S
Si59   S69     2.204   .     S
Si59   S70     2.213   .     S
Si59   S71     2.084   .     S
Si60   S68     2.092   .     S
Si60   S69     2.213   .     S
Si60   S70     2.206   .     S
Si60   S72     2.087   .     S
Si81   S85     2.092   .     S
Si81   S87     2.205   .     S
Si81   S88     2.213   .     S
Si81   S89     2.084   .     S
Si82   S86     2.092   .     S
Si82   S87     2.213   .     S
Si82   S88     2.206   .     S
Si82   S90     2.087   .     S
Si83   S91     2.092   .     S
Si83   S93     2.204   .     S
Si83   S94     2.213   .     S
Si83   S95     2.084   .     S
Si84   S92     2.092   .     S
Si84   S93     2.213   .     S
Si84   S94     2.206   .     S
Si84   S96     2.087   .     S
