# generated using pymatgen
data_Li2SiS3
_symmetry_space_group_name_H-M   'P 1'
_cell_length_a   11.49893323
_cell_length_b   6.77865364
_cell_length_c   6.61641642
_cell_angle_alpha   93.23843753
_cell_angle_beta   86.95258695
_cell_angle_gamma   91.20712968
_symmetry_Int_Tables_number   1
_chemical_formula_structural   Li2SiS3
_chemical_formula_sum   'Li8 Si4 S12'
_cell_volume   514.09558326
_cell_formula_units_Z   4
loop_
 _symmetry_equiv_pos_site_id
 _symmetry_equiv_pos_as_xyz
  1  'x, y, z'
loop_
 _atom_site_type_symbol
 _atom_site_label
 _atom_site_symmetry_multiplicity
 _atom_site_fract_x
 _atom_site_fract_y
 _atom_site_fract_z
 _atom_site_occupancy
  Li  Li0  1  0.39973704  0.14944588  0.18495695  1
  Li  Li1  1  0.19296829  0.33164383  0.88930512  1
  Li  Li2  1  0.51499501  0.32295303  0.66736348  1
  Li  Li3  1  0.07750559  0.15846815  0.40719017  1
  Li  Li4  1  0.89975568  0.64944384  0.18492983  1
  Li  Li5  1  0.69295169  0.83165231  0.88930338  1
  Li  Li6  1  0.01496463  0.82299142  0.66735099  1
  Li  Li7  1  0.57752003  0.65848503  0.40716743  1
  Si  Si8  1  0.21599242  0.64988987  0.38494130  1
  Si  Si9  1  0.37681566  0.83162643  0.68912800  1
  Si  Si10  1  0.71604712  0.14990772  0.38492199  1
  Si  Si11  1  0.87681683  0.33160958  0.68912258  1
  S  S12  1  0.07533945  0.81119416  0.29891725  1
  S  S13  1  0.51752162  0.67003431  0.77434200  1
  S  S14  1  0.38008146  0.82224165  0.35393275  1
  S  S15  1  0.21234527  0.65994730  0.72016276  1
  S  S16  1  0.22767804  0.36348593  0.25425385  1
  S  S17  1  0.36480159  0.11815006  0.82060190  1
  S  S18  1  0.57536960  0.31120047  0.29894601  1
  S  S19  1  0.01752839  0.17006665  0.77434930  1
  S  S20  1  0.88013042  0.32225121  0.35396761  1
  S  S21  1  0.71235898  0.15988287  0.72015853  1
  S  S22  1  0.72770312  0.86351925  0.25412205  1
  S  S23  1  0.86477416  0.61814425  0.82053485  1
