data_325_sym_contcar_2x1x2
_audit_creation_date              2023-09-15
_audit_creation_method            'Materials Studio'
_symmetry_space_group_name_H-M    'P1'
_symmetry_Int_Tables_number       1
_symmetry_cell_setting            triclinic
loop_
_symmetry_equiv_pos_as_xyz
  x,y,z
_cell_length_a                    13.4448
_cell_length_b                    11.9662
_cell_length_c                    13.2488
_cell_angle_alpha                 90.0000
_cell_angle_beta                  93.0341
_cell_angle_gamma                 90.0000
loop_
_atom_site_label
_atom_site_type_symbol
_atom_site_fract_x
_atom_site_fract_y
_atom_site_fract_z
_atom_site_U_iso_or_equiv
_atom_site_adp_type
_atom_site_occupancy
Li1    Li    0.08604   0.17621   0.32914   0.00000  Uiso   1.00
Li2    Li    0.16480   0.34256   0.07908   0.00000  Uiso   1.00
S3     S     0.09377   0.17183   0.14460   0.00000  Uiso   1.00
S4     S     0.15085   0.35373   0.39175   0.00000  Uiso   1.00
Li5    Li    0.41396   0.17621   0.17086   0.00000  Uiso   1.00
Li6    Li    0.33520   0.34256   0.42092   0.00000  Uiso   1.00
S7     S     0.40623   0.17183   0.35540   0.00000  Uiso   1.00
S8     S     0.34915   0.35373   0.10825   0.00000  Uiso   1.00
Li9    Li    0.41396   0.82379   0.17086   0.00000  Uiso   1.00
Li10   Li    0.33520   0.65744   0.42092   0.00000  Uiso   1.00
S11    S     0.40623   0.82817   0.35540   0.00000  Uiso   1.00
S12    S     0.34915   0.64627   0.10825   0.00000  Uiso   1.00
Li13   Li    0.08604   0.82379   0.32914   0.00000  Uiso   1.00
Li14   Li    0.16480   0.65744   0.07908   0.00000  Uiso   1.00
S15    S     0.09377   0.82817   0.14460   0.00000  Uiso   1.00
S16    S     0.15085   0.64627   0.39175   0.00000  Uiso   1.00
Si17   Si    0.08714   0.50000   0.33195   0.00000  Uiso   1.00
S18    S     0.07778   0.50000   0.16398   0.00000  Uiso   1.00
Si19   Si    0.41286   0.50000   0.16805   0.00000  Uiso   1.00
S20    S     0.42222   0.50000   0.33602   0.00000  Uiso   1.00
Sn21   Sn    0.15610  -0.00000   0.08749   0.00000  Uiso   1.00
S22    S     0.15754  -0.00000   0.39824   0.00000  Uiso   1.00
Sn23   Sn    0.34390   0.00000   0.41251   0.00000  Uiso   1.00
S24    S     0.34246  -0.00000   0.10176   0.00000  Uiso   1.00
Li25   Li    0.58604   0.17621   0.32914   0.00000  Uiso   1.00
Li26   Li    0.66480   0.34256   0.07908   0.00000  Uiso   1.00
S27    S     0.59377   0.17183   0.14460   0.00000  Uiso   1.00
S28    S     0.65085   0.35373   0.39175   0.00000  Uiso   1.00
Li29   Li    0.91396   0.17621   0.17086   0.00000  Uiso   1.00
Li30   Li    0.83520   0.34256   0.42092   0.00000  Uiso   1.00
S31    S     0.90623   0.17183   0.35540   0.00000  Uiso   1.00
S32    S     0.84915   0.35373   0.10825   0.00000  Uiso   1.00
Li33   Li    0.91396   0.82379   0.17086   0.00000  Uiso   1.00
Li34   Li    0.83520   0.65744   0.42092   0.00000  Uiso   1.00
S35    S     0.90623   0.82817   0.35540   0.00000  Uiso   1.00
S36    S     0.84915   0.64627   0.10825   0.00000  Uiso   1.00
Li37   Li    0.58604   0.82379   0.32914   0.00000  Uiso   1.00
Li38   Li    0.66480   0.65744   0.07908   0.00000  Uiso   1.00
S39    S     0.59377   0.82817   0.14460   0.00000  Uiso   1.00
S40    S     0.65085   0.64627   0.39175   0.00000  Uiso   1.00
Si41   Si    0.58714   0.50000   0.33195   0.00000  Uiso   1.00
S42    S     0.57778   0.50000   0.16398   0.00000  Uiso   1.00
Si43   Si    0.91286   0.50000   0.16805   0.00000  Uiso   1.00
S44    S     0.92222   0.50000   0.33602   0.00000  Uiso   1.00
Sn45   Sn    0.65610   0.00000   0.08749   0.00000  Uiso   1.00
S46    S     0.65754   0.00000   0.39824   0.00000  Uiso   1.00
Sn47   Sn    0.84390   0.00000   0.41251   0.00000  Uiso   1.00
S48    S     0.84246   0.00000   0.10176   0.00000  Uiso   1.00
Li49   Li    0.08604   0.17621   0.82914   0.00000  Uiso   1.00
Li50   Li    0.16480   0.34256   0.57908   0.00000  Uiso   1.00
S51    S     0.09377   0.17183   0.64460   0.00000  Uiso   1.00
S52    S     0.15085   0.35373   0.89175   0.00000  Uiso   1.00
Li53   Li    0.41396   0.17621   0.67086   0.00000  Uiso   1.00
Li54   Li    0.33520   0.34256   0.92092   0.00000  Uiso   1.00
S55    S     0.40623   0.17183   0.85539   0.00000  Uiso   1.00
S56    S     0.34915   0.35373   0.60825   0.00000  Uiso   1.00
Li57   Li    0.41396   0.82379   0.67086   0.00000  Uiso   1.00
Li58   Li    0.33520   0.65744   0.92091   0.00000  Uiso   1.00
S59    S     0.40623   0.82817   0.85539   0.00000  Uiso   1.00
S60    S     0.34915   0.64627   0.60825   0.00000  Uiso   1.00
Li61   Li    0.08604   0.82379   0.82914   0.00000  Uiso   1.00
Li62   Li    0.16480   0.65744   0.57908   0.00000  Uiso   1.00
S63    S     0.09377   0.82817   0.64460   0.00000  Uiso   1.00
S64    S     0.15085   0.64627   0.89175   0.00000  Uiso   1.00
Si65   Si    0.08714   0.50000   0.83195   0.00000  Uiso   1.00
S66    S     0.07778   0.50000   0.66398   0.00000  Uiso   1.00
Si67   Si    0.41286   0.50000   0.66805   0.00000  Uiso   1.00
S68    S     0.42222   0.50000   0.83602   0.00000  Uiso   1.00
Sn69   Sn    0.15610  -0.00000   0.58749   0.00000  Uiso   1.00
S70    S     0.15754  -0.00000   0.89824   0.00000  Uiso   1.00
Sn71   Sn    0.34390   0.00000   0.91251   0.00000  Uiso   1.00
S72    S     0.34246  -0.00000   0.60176   0.00000  Uiso   1.00
Li73   Li    0.58604   0.17621   0.82914   0.00000  Uiso   1.00
Li74   Li    0.66480   0.34256   0.57908   0.00000  Uiso   1.00
S75    S     0.59377   0.17183   0.64460   0.00000  Uiso   1.00
S76    S     0.65085   0.35373   0.89175   0.00000  Uiso   1.00
Li77   Li    0.91396   0.17621   0.67086   0.00000  Uiso   1.00
Li78   Li    0.83520   0.34256   0.92092   0.00000  Uiso   1.00
S79    S     0.90623   0.17183   0.85539   0.00000  Uiso   1.00
S80    S     0.84915   0.35373   0.60825   0.00000  Uiso   1.00
Li81   Li    0.91396   0.82379   0.67086   0.00000  Uiso   1.00
Li82   Li    0.83520   0.65744   0.92092   0.00000  Uiso   1.00
S83    S     0.90623   0.82817   0.85539   0.00000  Uiso   1.00
S84    S     0.84915   0.64627   0.60825   0.00000  Uiso   1.00
Li85   Li    0.58604   0.82379   0.82914   0.00000  Uiso   1.00
Li86   Li    0.66480   0.65744   0.57908   0.00000  Uiso   1.00
S87    S     0.59377   0.82817   0.64460   0.00000  Uiso   1.00
S88    S     0.65085   0.64627   0.89175   0.00000  Uiso   1.00
Si89   Si    0.58714   0.50000   0.83195   0.00000  Uiso   1.00
S90    S     0.57778   0.50000   0.66398   0.00000  Uiso   1.00
Si91   Si    0.91286   0.50000   0.66805   0.00000  Uiso   1.00
S92    S     0.92222   0.50000   0.83602   0.00000  Uiso   1.00
Sn93   Sn    0.65610   0.00000   0.58749   0.00000  Uiso   1.00
S94    S     0.65754   0.00000   0.89824   0.00000  Uiso   1.00
Sn95   Sn    0.84390   0.00000   0.91251   0.00000  Uiso   1.00
S96    S     0.84246   0.00000   0.60176   0.00000  Uiso   1.00
