data_1_4_sym
_audit_creation_date              2024-04-01
_audit_creation_method            'Materials Studio'
_symmetry_space_group_name_H-M    'CMC21'
_symmetry_Int_Tables_number       36
_symmetry_cell_setting            orthorhombic
loop_
_symmetry_equiv_pos_as_xyz
  x,y,z
  -x,-y,z+1/2
  x,-y,z+1/2
  -x,y,z
  x+1/2,y+1/2,z
  -x+1/2,-y+1/2,z+1/2
  x+1/2,-y+1/2,z+1/2
  -x+1/2,y+1/2,z
_cell_length_a                    11.8507
_cell_length_b                    6.8520
_cell_length_c                    6.2048
_cell_angle_alpha                 90.0000
_cell_angle_beta                  90.0000
_cell_angle_gamma                 90.0000
loop_
_atom_site_label
_atom_site_type_symbol
_atom_site_fract_x
_atom_site_fract_y
_atom_site_fract_z
_atom_site_U_iso_or_equiv
_atom_site_adp_type
_atom_site_occupancy
Li0    Li   -0.16691  -0.34630  -0.79920   0.00000  Uiso   1.00
S12    S    -0.15734  -0.68704  -0.68775   0.00000  Uiso   1.00
Ge8    Ge    0.00000  -0.83229  -0.78138   0.00000  Uiso   1.00
S17    S     0.00000  -1.84849  -0.15987   0.00000  Uiso   1.00
loop_
_geom_bond_atom_site_label_1
_geom_bond_atom_site_label_2
_geom_bond_distance
_geom_bond_site_symmetry_2
_ccdc_geom_bond_type
S12    Ge8     2.192   .     S
Ge8    S12     2.192   4     S
Ge8    S17     2.351   1_564 S
Ge8    S17     2.314   2_524 S
S17    Ge8     2.351   1_546 S
S17    Ge8     2.314   2_525 S
