data_9_36_sym
_audit_creation_date              2024-04-01
_audit_creation_method            'Materials Studio'
_symmetry_space_group_name_H-M    'P1'
_symmetry_Int_Tables_number       1
_symmetry_cell_setting            triclinic
loop_
_symmetry_equiv_pos_as_xyz
  x,y,z
_cell_length_a                    6.3402
_cell_length_b                    7.0939
_cell_length_c                    12.1757
_cell_angle_alpha                 90.0000
_cell_angle_beta                  115.8373
_cell_angle_gamma                 90.0000
loop_
_atom_site_label
_atom_site_type_symbol
_atom_site_fract_x
_atom_site_fract_y
_atom_site_fract_z
_atom_site_U_iso_or_equiv
_atom_site_adp_type
_atom_site_occupancy
Li1    Li    0.03262   0.22218   0.19996   0.00000  Uiso   1.00
Li2    Li    0.32251   0.24811   0.02688   0.00000  Uiso   1.00
S3     S     0.69193   0.75966   0.24948   0.00000  Uiso   1.00
Li4    Li    0.03262   0.77782   0.19996   0.00000  Uiso   1.00
Li5    Li    0.32251   0.75189   0.02688   0.00000  Uiso   1.00
S6     S     0.69193   0.24034   0.24948   0.00000  Uiso   1.00
Ge7    Ge    0.66983  -0.00000   0.37199   0.00000  Uiso   1.00
S8     S     0.32232  -0.00000   0.37508   0.00000  Uiso   1.00
S9     S     0.99661  -0.00000   0.54302   0.00000  Uiso   1.00
Ge10   Ge    0.52123   0.50000   0.29783   0.00000  Uiso   1.00
S11    S     0.55603   0.50000   0.48242   0.00000  Uiso   1.00
S12    S     0.17033   0.50000   0.14225   0.00000  Uiso   1.00
Li13   Li    0.03262   0.22218   0.69996   0.00000  Uiso   1.00
Li14   Li    0.32251   0.24811   0.52688   0.00000  Uiso   1.00
S15    S     0.69193   0.75966   0.74948   0.00000  Uiso   1.00
Li16   Li    0.03262   0.77782   0.69996   0.00000  Uiso   1.00
Li17   Li    0.32251   0.75189   0.52688   0.00000  Uiso   1.00
S18    S     0.69193   0.24034   0.74948   0.00000  Uiso   1.00
Ge19   Ge    0.66983  -0.00000   0.87199   0.00000  Uiso   1.00
S20    S     0.32232  -0.00000   0.87508   0.00000  Uiso   1.00
S21    S     0.99661  -0.00000   1.04302   0.00000  Uiso   1.00
Ge22   Ge    0.52123   0.50000   0.79783   0.00000  Uiso   1.00
S23    S     0.55603   0.50000   0.98242   0.00000  Uiso   1.00
S24    S     0.17033   0.50000   0.64225   0.00000  Uiso   1.00
loop_
_geom_bond_atom_site_label_1
_geom_bond_atom_site_label_2
_geom_bond_distance
_geom_bond_site_symmetry_2
_ccdc_geom_bond_type
S3     Ge7     2.309   1_565 S
S3     Ge10    2.338   .     S
S6     Ge7     2.309   .     S
S6     Ge10    2.338   .     S
Ge7    S8      2.220   .     S
Ge7    S3      2.309   1_545 S
Ge7    S9      2.206   .     S
Ge10   S12     2.206   .     S
Ge10   S11     2.161   .     S
S15    Ge19    2.309   1_565 S
S15    Ge22    2.338   .     S
S18    Ge19    2.309   .     S
S18    Ge22    2.338   .     S
Ge19   S20     2.220   .     S
Ge19   S15     2.309   1_545 S
Ge19   S21     2.206   .     S
Ge22   S24     2.206   .     S
Ge22   S23     2.161   .     S
