# generated using pymatgen
data_Li2GeS3
_symmetry_space_group_name_H-M   'P 1'
_cell_length_a   12.29520000
_cell_length_b   12.06300000
_cell_length_c   13.80860000
_cell_angle_alpha   90.00000000
_cell_angle_beta   90.00000000
_cell_angle_gamma   90.00000000
_symmetry_Int_Tables_number   1
_chemical_formula_structural   Li2GeS3
_chemical_formula_sum   'Li32 Ge16 S48'
_cell_volume   2048.05009306
_cell_formula_units_Z   16
loop_
 _symmetry_equiv_pos_site_id
 _symmetry_equiv_pos_as_xyz
  1  'x, y, z'
loop_
 _atom_site_type_symbol
 _atom_site_label
 _atom_site_symmetry_multiplicity
 _atom_site_fract_x
 _atom_site_fract_y
 _atom_site_fract_z
 _atom_site_occupancy
  Li  Li0  1  0.34452000  0.41384000  0.45155000  1.0
  Li  Li1  1  0.34452000  0.41384000  0.95155000  1.0
  Li  Li2  1  0.84452000  0.41384000  0.45155000  1.0
  Li  Li3  1  0.84452000  0.41384000  0.95155000  1.0
  Li  Li4  1  0.40548000  0.58616000  0.20155000  1.0
  Li  Li5  1  0.40548000  0.58616000  0.70155000  1.0
  Li  Li6  1  0.90548000  0.58616000  0.20155000  1.0
  Li  Li7  1  0.90548000  0.58616000  0.70155000  1.0
  Li  Li8  1  0.15548000  0.91384000  0.04845000  1.0
  Li  Li9  1  0.15548000  0.91384000  0.54845000  1.0
  Li  Li10  1  0.65548000  0.91384000  0.04845000  1.0
  Li  Li11  1  0.65548000  0.91384000  0.54845000  1.0
  Li  Li12  1  0.09452000  0.08616000  0.29845000  1.0
  Li  Li13  1  0.09452000  0.08616000  0.79845000  1.0
  Li  Li14  1  0.59452000  0.08616000  0.29845000  1.0
  Li  Li15  1  0.59452000  0.08616000  0.79845000  1.0
  Li  Li16  1  0.15548000  0.58616000  0.04845000  1.0
  Li  Li17  1  0.15548000  0.58616000  0.54845000  1.0
  Li  Li18  1  0.65548000  0.58616000  0.04845000  1.0
  Li  Li19  1  0.65548000  0.58616000  0.54845000  1.0
  Li  Li20  1  0.09452000  0.41384000  0.29845000  1.0
  Li  Li21  1  0.09452000  0.41384000  0.79845000  1.0
  Li  Li22  1  0.59452000  0.41384000  0.29845000  1.0
  Li  Li23  1  0.59452000  0.41384000  0.79845000  1.0
  Li  Li24  1  0.34452000  0.08616000  0.45155000  1.0
  Li  Li25  1  0.34452000  0.08616000  0.95155000  1.0
  Li  Li26  1  0.84452000  0.08616000  0.45155000  1.0
  Li  Li27  1  0.84452000  0.08616000  0.95155000  1.0
  Li  Li28  1  0.40548000  0.91384000  0.20155000  1.0
  Li  Li29  1  0.40548000  0.91384000  0.70155000  1.0
  Li  Li30  1  0.90548000  0.91384000  0.20155000  1.0
  Li  Li31  1  0.90548000  0.91384000  0.70155000  1.0
  Ge  Ge32  1  0.09984500  0.25000000  0.04124000  1.0
  Ge  Ge33  1  0.09984500  0.25000000  0.54124000  1.0
  Ge  Ge34  1  0.59984500  0.25000000  0.04124000  1.0
  Ge  Ge35  1  0.59984500  0.25000000  0.54124000  1.0
  Ge  Ge36  1  0.15015500  0.75000000  0.29124000  1.0
  Ge  Ge37  1  0.15015500  0.75000000  0.79124000  1.0
  Ge  Ge38  1  0.65015500  0.75000000  0.29124000  1.0
  Ge  Ge39  1  0.65015500  0.75000000  0.79124000  1.0
  Ge  Ge40  1  0.40015500  0.75000000  0.45876000  1.0
  Ge  Ge41  1  0.40015500  0.75000000  0.95876000  1.0
  Ge  Ge42  1  0.90015500  0.75000000  0.45876000  1.0
  Ge  Ge43  1  0.90015500  0.75000000  0.95876000  1.0
  Ge  Ge44  1  0.34984500  0.25000000  0.20876000  1.0
  Ge  Ge45  1  0.34984500  0.25000000  0.70876000  1.0
  Ge  Ge46  1  0.84984500  0.25000000  0.20876000  1.0
  Ge  Ge47  1  0.84984500  0.25000000  0.70876000  1.0
  S  S48  1  0.35442500  0.59564000  0.03192500  1.0
  S  S49  1  0.35442500  0.59564000  0.53192500  1.0
  S  S50  1  0.85442500  0.59564000  0.03192500  1.0
  S  S51  1  0.85442500  0.59564000  0.53192500  1.0
  S  S52  1  0.39557500  0.40436000  0.28192500  1.0
  S  S53  1  0.39557500  0.40436000  0.78192500  1.0
  S  S54  1  0.89557500  0.40436000  0.28192500  1.0
  S  S55  1  0.89557500  0.40436000  0.78192500  1.0
  S  S56  1  0.14557500  0.09564000  0.46807500  1.0
  S  S57  1  0.14557500  0.09564000  0.96807500  1.0
  S  S58  1  0.64557500  0.09564000  0.46807500  1.0
  S  S59  1  0.64557500  0.09564000  0.96807500  1.0
  S  S60  1  0.10442500  0.90436000  0.21807500  1.0
  S  S61  1  0.10442500  0.90436000  0.71807500  1.0
  S  S62  1  0.60442500  0.90436000  0.21807500  1.0
  S  S63  1  0.60442500  0.90436000  0.71807500  1.0
  S  S64  1  0.14557500  0.40436000  0.46807500  1.0
  S  S65  1  0.14557500  0.40436000  0.96807500  1.0
  S  S66  1  0.64557500  0.40436000  0.46807500  1.0
  S  S67  1  0.64557500  0.40436000  0.96807500  1.0
  S  S68  1  0.10442500  0.59564000  0.21807500  1.0
  S  S69  1  0.10442500  0.59564000  0.71807500  1.0
  S  S70  1  0.60442500  0.59564000  0.21807500  1.0
  S  S71  1  0.60442500  0.59564000  0.71807500  1.0
  S  S72  1  0.35442500  0.90436000  0.03192500  1.0
  S  S73  1  0.35442500  0.90436000  0.53192500  1.0
  S  S74  1  0.85442500  0.90436000  0.03192500  1.0
  S  S75  1  0.85442500  0.90436000  0.53192500  1.0
  S  S76  1  0.39557500  0.09564000  0.28192500  1.0
  S  S77  1  0.39557500  0.09564000  0.78192500  1.0
  S  S78  1  0.89557500  0.09564000  0.28192500  1.0
  S  S79  1  0.89557500  0.09564000  0.78192500  1.0
  S  S80  1  0.15936500  0.25000000  0.19979500  1.0
  S  S81  1  0.15936500  0.25000000  0.69979500  1.0
  S  S82  1  0.65936500  0.25000000  0.19979500  1.0
  S  S83  1  0.65936500  0.25000000  0.69979500  1.0
  S  S84  1  0.09063500  0.75000000  0.44979500  1.0
  S  S85  1  0.09063500  0.75000000  0.94979500  1.0
  S  S86  1  0.59063500  0.75000000  0.44979500  1.0
  S  S87  1  0.59063500  0.75000000  0.94979500  1.0
  S  S88  1  0.34063500  0.75000000  0.30020500  1.0
  S  S89  1  0.34063500  0.75000000  0.80020500  1.0
  S  S90  1  0.84063500  0.75000000  0.30020500  1.0
  S  S91  1  0.84063500  0.75000000  0.80020500  1.0
  S  S92  1  0.40936500  0.25000000  0.05020500  1.0
  S  S93  1  0.40936500  0.25000000  0.55020500  1.0
  S  S94  1  0.90936500  0.25000000  0.05020500  1.0
  S  S95  1  0.90936500  0.25000000  0.55020500  1.0
