data_LiBiO3_C-selectedcfg_01_contcar_fail
_audit_creation_date              2025-07-02
_audit_creation_method            'Materials Studio'
_symmetry_space_group_name_H-M    'P1'
_symmetry_Int_Tables_number       1
_symmetry_cell_setting            triclinic
loop_
_symmetry_equiv_pos_as_xyz
  x,y,z
_cell_length_a                    5.6756
_cell_length_b                    13.8118
_cell_length_c                    6.9365
_cell_angle_alpha                 88.3337
_cell_angle_beta                  95.2049
_cell_angle_gamma                 94.9818
loop_
_atom_site_label
_atom_site_type_symbol
_atom_site_fract_x
_atom_site_fract_y
_atom_site_fract_z
_atom_site_U_iso_or_equiv
_atom_site_adp_type
_atom_site_occupancy
Li0    Li    0.57345   0.33919   0.37584   0.00000  Uiso   1.00
Li1    Li    0.07362   0.08924   0.87622   0.00000  Uiso   1.00
Li2    Li    0.02817   0.41563   0.52964   0.00000  Uiso   1.00
Li3    Li    0.52826   0.66580   0.02967   0.00000  Uiso   1.00
Li4    Li    0.57331   0.83911   0.37626   0.00000  Uiso   1.00
Li5    Li    0.07320   0.58913   0.87598   0.00000  Uiso   1.00
Li6    Li    0.02858   0.91577   0.52966   0.00000  Uiso   1.00
Li7    Li    0.52859   0.16578   0.03011   0.00000  Uiso   1.00
Bi8    Bi    0.55170   0.58676   0.53299   0.00000  Uiso   1.00
Bi9    Bi    0.05230   0.33686   0.03325   0.00000  Uiso   1.00
Bi10   Bi    0.55129   0.41731   0.87036   0.00000  Uiso   1.00
Bi11   Bi    0.05202   0.16745   0.37076   0.00000  Uiso   1.00
Bi12   Bi    0.55285   0.08710   0.53351   0.00000  Uiso   1.00
Bi13   Bi    0.05225   0.83685   0.03322   0.00000  Uiso   1.00
Bi14   Bi    0.55155   0.91731   0.87053   0.00000  Uiso   1.00
Bi15   Bi    0.05098   0.66725   0.37038   0.00000  Uiso   1.00
O16    O     0.16185   0.19025   0.07892   0.00000  Uiso   1.00
O17    O     0.66189   0.44028   0.57882   0.00000  Uiso   1.00
O18    O     0.39779   0.22283   0.49010   0.00000  Uiso   1.00
O19    O     0.89695   0.47257   0.98984   0.00000  Uiso   1.00
O20    O     0.70413   0.60798   0.26139   0.00000  Uiso   1.00
O21    O     0.20456   0.35802   0.76142   0.00000  Uiso   1.00
O22    O     0.20621   0.53124   0.41292   0.00000  Uiso   1.00
O23    O     0.70692   0.28136  -0.08715   0.00000  Uiso   1.00
O24    O    -0.05487   0.31454   0.32644   0.00000  Uiso   1.00
O25    O     0.44490   0.56460   0.82639   0.00000  Uiso   1.00
O26    O     0.90058   0.14525   0.64183   0.00000  Uiso   1.00
O27    O     0.39975   0.39500   0.14178   0.00000  Uiso   1.00
O28    O     0.16195   0.69020   0.07893   0.00000  Uiso   1.00
O29    O     0.66203   0.94032   0.57907   0.00000  Uiso   1.00
O30    O     0.39656   0.72250   0.49016   0.00000  Uiso   1.00
O31    O     0.89727   0.97263   0.99007   0.00000  Uiso   1.00
O32    O     0.70499   0.10802   0.26189   0.00000  Uiso   1.00
O33    O     0.20460   0.85803   0.76165   0.00000  Uiso   1.00
O34    O     0.20732   0.03151   0.41291   0.00000  Uiso   1.00
O35    O     0.70689   0.78132  -0.08752   0.00000  Uiso   1.00
O36    O    -0.05513   0.81455   0.32619   0.00000  Uiso   1.00
O37    O     0.44537   0.06457   0.82643   0.00000  Uiso   1.00
O38    O     0.89953   0.64481   0.64154   0.00000  Uiso   1.00
O39    O     0.40004   0.89491   0.14177   0.00000  Uiso   1.00
