data_11_1x2x2
_audit_creation_date              2024-02-16
_audit_creation_method            'Materials Studio'
_symmetry_space_group_name_H-M    'P1'
_symmetry_Int_Tables_number       1
_symmetry_cell_setting            triclinic
loop_
_symmetry_equiv_pos_as_xyz
  x,y,z
_cell_length_a                    11.9027
_cell_length_b                    13.3024
_cell_length_c                    13.7485
_cell_angle_alpha                 88.2078
_cell_angle_beta                  89.0529
_cell_angle_gamma                 89.8106
loop_
_atom_site_label
_atom_site_type_symbol
_atom_site_fract_x
_atom_site_fract_y
_atom_site_fract_z
_atom_site_U_iso_or_equiv
_atom_site_adp_type
_atom_site_occupancy
Li1    Li    0.02126   0.17366   0.17239   0.00000  Uiso   1.00
Li2    Li    0.02085   0.34739   0.34866   0.00000  Uiso   1.00
Li3    Li    0.37219   0.07576   0.16151   0.00000  Uiso   1.00
Li4    Li    0.66991   0.44529   0.35954   0.00000  Uiso   1.00
Li5    Li    0.51191   0.33380   0.10777   0.00000  Uiso   1.00
Li6    Li    0.53018   0.18725   0.41328   0.00000  Uiso   1.00
Li7    Li    0.19860   0.34024   0.09864   0.00000  Uiso   1.00
Li8    Li    0.84350   0.18080   0.42241   0.00000  Uiso   1.00
Si9    Si    0.68079   0.08804   0.17319   0.00000  Uiso   1.00
Si10   Si    0.36131   0.43301   0.34786   0.00000  Uiso   1.00
Sn11   Sn    0.85777   0.42300   0.08559   0.00000  Uiso   1.00
Sn12   Sn    0.18433   0.09805   0.43546   0.00000  Uiso   1.00
S13    S     0.01334   0.36176   0.17283   0.00000  Uiso   1.00
S14    S     0.02876   0.15929   0.34821   0.00000  Uiso   1.00
S15    S     0.67547   0.42143   0.17577   0.00000  Uiso   1.00
S16    S     0.36663   0.09962   0.34528   0.00000  Uiso   1.00
S17    S     0.19873   0.41010   0.42705   0.00000  Uiso   1.00
S18    S     0.84337   0.11095   0.09400   0.00000  Uiso   1.00
S19    S     0.68906   0.12653   0.31974   0.00000  Uiso   1.00
S20    S     0.35304   0.39452   0.20131   0.00000  Uiso   1.00
S21    S     0.20593   0.15386   0.09531   0.00000  Uiso   1.00
S22    S     0.83617   0.36718   0.42574   0.00000  Uiso   1.00
S23    S     0.54771   0.15136   0.09453   0.00000  Uiso   1.00
S24    S     0.49439   0.36969   0.42652   0.00000  Uiso   1.00
Li25   Li    0.02126   0.67366   0.17239   0.00000  Uiso   1.00
Li26   Li    0.02085   0.84739   0.34866   0.00000  Uiso   1.00
Li27   Li    0.37219   0.57576   0.16151   0.00000  Uiso   1.00
Li28   Li    0.66991   0.94529   0.35954   0.00000  Uiso   1.00
Li29   Li    0.51191   0.83380   0.10777   0.00000  Uiso   1.00
Li30   Li    0.53018   0.68725   0.41328   0.00000  Uiso   1.00
Li31   Li    0.19860   0.84024   0.09864   0.00000  Uiso   1.00
Li32   Li    0.84350   0.68080   0.42241   0.00000  Uiso   1.00
Si33   Si    0.68079   0.58804   0.17319   0.00000  Uiso   1.00
Si34   Si    0.36131   0.93301   0.34786   0.00000  Uiso   1.00
Sn35   Sn    0.85777   0.92300   0.08559   0.00000  Uiso   1.00
Sn36   Sn    0.18433   0.59805   0.43546   0.00000  Uiso   1.00
S37    S     0.01334   0.86176   0.17283   0.00000  Uiso   1.00
S38    S     0.02876   0.65929   0.34821   0.00000  Uiso   1.00
S39    S     0.67547   0.92143   0.17577   0.00000  Uiso   1.00
S40    S     0.36663   0.59962   0.34528   0.00000  Uiso   1.00
S41    S     0.19873   0.91010   0.42705   0.00000  Uiso   1.00
S42    S     0.84337   0.61095   0.09400   0.00000  Uiso   1.00
S43    S     0.68906   0.62653   0.31974   0.00000  Uiso   1.00
S44    S     0.35304   0.89452   0.20131   0.00000  Uiso   1.00
S45    S     0.20593   0.65386   0.09531   0.00000  Uiso   1.00
S46    S     0.83617   0.86718   0.42574   0.00000  Uiso   1.00
S47    S     0.54771   0.65136   0.09453   0.00000  Uiso   1.00
S48    S     0.49439   0.86969   0.42652   0.00000  Uiso   1.00
Li49   Li    0.02126   0.17366   0.67239   0.00000  Uiso   1.00
Li50   Li    0.02085   0.34739   0.84866   0.00000  Uiso   1.00
Li51   Li    0.37219   0.07576   0.66151   0.00000  Uiso   1.00
Li52   Li    0.66991   0.44529   0.85954   0.00000  Uiso   1.00
Li53   Li    0.51191   0.33380   0.60777   0.00000  Uiso   1.00
Li54   Li    0.53018   0.18725   0.91328   0.00000  Uiso   1.00
Li55   Li    0.19860   0.34024   0.59864   0.00000  Uiso   1.00
Li56   Li    0.84350   0.18080   0.92241   0.00000  Uiso   1.00
Si57   Si    0.68079   0.08804   0.67319   0.00000  Uiso   1.00
Si58   Si    0.36131   0.43301   0.84786   0.00000  Uiso   1.00
Sn59   Sn    0.85777   0.42300   0.58559   0.00000  Uiso   1.00
Sn60   Sn    0.18433   0.09805   0.93546   0.00000  Uiso   1.00
S61    S     0.01334   0.36176   0.67283   0.00000  Uiso   1.00
S62    S     0.02876   0.15929   0.84821   0.00000  Uiso   1.00
S63    S     0.67547   0.42143   0.67577   0.00000  Uiso   1.00
S64    S     0.36663   0.09962   0.84528   0.00000  Uiso   1.00
S65    S     0.19873   0.41010   0.92705   0.00000  Uiso   1.00
S66    S     0.84337   0.11095   0.59400   0.00000  Uiso   1.00
S67    S     0.68906   0.12653   0.81974   0.00000  Uiso   1.00
S68    S     0.35304   0.39452   0.70131   0.00000  Uiso   1.00
S69    S     0.20593   0.15386   0.59531   0.00000  Uiso   1.00
S70    S     0.83617   0.36718   0.92574   0.00000  Uiso   1.00
S71    S     0.54771   0.15136   0.59453   0.00000  Uiso   1.00
S72    S     0.49439   0.36969   0.92652   0.00000  Uiso   1.00
Li73   Li    0.02126   0.67366   0.67239   0.00000  Uiso   1.00
Li74   Li    0.02085   0.84739   0.84866   0.00000  Uiso   1.00
Li75   Li    0.37219   0.57576   0.66151   0.00000  Uiso   1.00
Li76   Li    0.66991   0.94529   0.85954   0.00000  Uiso   1.00
Li77   Li    0.51191   0.83380   0.60777   0.00000  Uiso   1.00
Li78   Li    0.53018   0.68725   0.91328   0.00000  Uiso   1.00
Li79   Li    0.19860   0.84024   0.59864   0.00000  Uiso   1.00
Li80   Li    0.84350   0.68080   0.92241   0.00000  Uiso   1.00
Si81   Si    0.68079   0.58804   0.67319   0.00000  Uiso   1.00
Si82   Si    0.36131   0.93301   0.84786   0.00000  Uiso   1.00
Sn83   Sn    0.85777   0.92300   0.58559   0.00000  Uiso   1.00
Sn84   Sn    0.18433   0.59805   0.93546   0.00000  Uiso   1.00
S85    S     0.01334   0.86176   0.67283   0.00000  Uiso   1.00
S86    S     0.02876   0.65929   0.84821   0.00000  Uiso   1.00
S87    S     0.67547   0.92143   0.67577   0.00000  Uiso   1.00
S88    S     0.36663   0.59962   0.84528   0.00000  Uiso   1.00
S89    S     0.19873   0.91010   0.92705   0.00000  Uiso   1.00
S90    S     0.84337   0.61095   0.59400   0.00000  Uiso   1.00
S91    S     0.68906   0.62653   0.81974   0.00000  Uiso   1.00
S92    S     0.35304   0.89452   0.70131   0.00000  Uiso   1.00
S93    S     0.20593   0.65386   0.59531   0.00000  Uiso   1.00
S94    S     0.83617   0.86718   0.92574   0.00000  Uiso   1.00
S95    S     0.54771   0.65136   0.59453   0.00000  Uiso   1.00
S96    S     0.49439   0.86969   0.92652   0.00000  Uiso   1.00
