# generated using pymatgen
data_Li4SiSnS6
_symmetry_space_group_name_H-M   'P 1'
_cell_length_a   11.90266804
_cell_length_b   6.65120482
_cell_length_c   6.87422670
_cell_angle_alpha   88.20781849
_cell_angle_beta   89.05289094
_cell_angle_gamma   89.81064778
_symmetry_Int_Tables_number   1
_chemical_formula_structural   Li4SiSnS6
_chemical_formula_sum   'Li8 Si2 Sn2 S12'
_cell_volume   543.86983725
_cell_formula_units_Z   2
loop_
 _symmetry_equiv_pos_site_id
 _symmetry_equiv_pos_as_xyz
  1  'x, y, z'
loop_
 _atom_site_type_symbol
 _atom_site_label
 _atom_site_symmetry_multiplicity
 _atom_site_fract_x
 _atom_site_fract_y
 _atom_site_fract_z
 _atom_site_occupancy
  Li  Li0  1  0.02125663  0.34731829  0.34478390  1
  Li  Li1  1  0.02084537  0.69478171  0.69731410  1
  Li  Li2  1  0.37218649  0.15152085  0.32301618  1
  Li  Li3  1  0.66991151  0.89057815  0.71908182  1
  Li  Li4  1  0.51191442  0.66760254  0.21554194  1
  Li  Li5  1  0.53018458  0.37449546  0.82655606  1
  Li  Li6  1  0.19860456  0.68048956  0.19727839  1
  Li  Li7  1  0.84349744  0.36160944  0.84481961  1
  Si  Si8  1  0.68078590  0.17607845  0.34637822  1
  Si  Si9  1  0.36131210  0.86602055  0.69571978  1
  Sn  Sn10  1  0.85776729  0.84600326  0.17117169  1
  Sn  Sn11  1  0.18432871  0.19609574  0.87092631  1
  S  S12  1  0.01333679  0.72352973  0.34566807  1
  S  S13  1  0.02876121  0.31857027  0.69642893  1
  S  S14  1  0.67546997  0.84286034  0.35154303  1
  S  S15  1  0.36662803  0.19923966  0.69055497  1
  S  S16  1  0.19872568  0.82020990  0.85409119  1
  S  S17  1  0.84337332  0.22189010  0.18800681  1
  S  S18  1  0.68906376  0.25305926  0.63947624  1
  S  S19  1  0.35303524  0.78904074  0.40262176  1
  S  S20  1  0.20592548  0.30772817  0.19062602  1
  S  S21  1  0.83616952  0.73436983  0.85147198  1
  S  S22  1  0.54771296  0.30272769  0.18906453  1
  S  S23  1  0.49438504  0.73937231  0.85303347  1
