# generated using pymatgen
data_Li4SiSnS6
_symmetry_space_group_name_H-M   'P 1'
_cell_length_a   10.53580073
_cell_length_b   7.47739828
_cell_length_c   6.64113312
_cell_angle_alpha   90.86387601
_cell_angle_beta   89.67347221
_cell_angle_gamma   95.23238349
_symmetry_Int_Tables_number   1
_chemical_formula_structural   Li4SiSnS6
_chemical_formula_sum   'Li8 Si2 Sn2 S12'
_cell_volume   520.94671817
_cell_formula_units_Z   2
loop_
 _symmetry_equiv_pos_site_id
 _symmetry_equiv_pos_as_xyz
  1  'x, y, z'
loop_
 _atom_site_type_symbol
 _atom_site_label
 _atom_site_symmetry_multiplicity
 _atom_site_fract_x
 _atom_site_fract_y
 _atom_site_fract_z
 _atom_site_occupancy
  Li  Li0  1  0.50084620  0.15688799  0.21483252  1
  Li  Li1  1  0.57753885  0.92149430  0.86352802  1
  Li  Li2  1  0.27882875  0.13053377  0.69531645  1
  Li  Li3  1  0.79965104  0.94709824  0.38272279  1
  Li  Li4  1  0.09974320  0.90963340  0.20163070  1
  Li  Li5  1  -0.02154336  0.16746017  0.87631632  1
  Li  Li6  1  0.10825788  0.44912196  0.36362310  1
  Li  Li7  1  0.96974559  0.62811843  0.71439100  1
  Si  Si8  1  0.41018551  0.80138886  0.35262433  1
  Si  Si9  1  0.66793938  0.27684650  0.72543120  1
  Sn  Sn10  1  0.82129726  0.43435057  0.22381956  1
  Sn  Sn11  1  0.25663516  0.64371175  0.85474309  1
  S  S12  1  -0.04165510  0.19558697  0.23625262  1
  S  S13  1  0.11961194  0.88272091  0.84177241  1
  S  S14  1  0.94533819  0.69197605  0.36301632  1
  S  S15  1  0.13278429  0.38598863  0.71498602  1
  S  S16  1  0.29967554  0.02125654  0.34990540  1
  S  S17  1  0.77834384  0.05668851  0.72762589  1
  S  S18  1  0.48795094  0.21738228  0.85668110  1
  S  S19  1  0.59019847  -0.13879666  0.22165166  1
  S  S20  1  0.76378953  0.51657236  0.87712442  1
  S  S21  1  0.31413049  0.56206180  0.20112736  1
  S  S22  1  0.62666369  0.38130582  0.42720418  1
  S  S23  1  0.45116270  0.69773285  0.65078452  1
