# generated using pymatgen
data_Li2SiS3
_symmetry_space_group_name_H-M   'P 1'
_cell_length_a   11.40158758
_cell_length_b   6.66808030
_cell_length_c   6.58279442
_cell_angle_alpha   90.00000000
_cell_angle_beta   90.00000000
_cell_angle_gamma   90.00386271
_symmetry_Int_Tables_number   1
_chemical_formula_structural   Li2SiS3
_chemical_formula_sum   'Li8 Si4 S12'
_cell_volume   500.46814551
_cell_formula_units_Z   4
loop_
 _symmetry_equiv_pos_site_id
 _symmetry_equiv_pos_as_xyz
  1  'x, y, z'
loop_
 _atom_site_type_symbol
 _atom_site_label
 _atom_site_symmetry_multiplicity
 _atom_site_fract_x
 _atom_site_fract_y
 _atom_site_fract_z
 _atom_site_occupancy
  Li  Li0  1  0.11419558  0.16762700  0.96921388  1
  Li  Li1  1  0.45249830  0.16143082  0.67660373  1
  Li  Li2  1  0.90542642  0.90916000  0.46921288  1
  Li  Li3  1  0.41680633  0.44638340  0.20122779  1
  Li  Li4  1  0.01222536  0.33261383  0.55578508  1
  Li  Li5  1  0.60281567  0.63040260  0.70122879  1
  Li  Li6  1  0.56712470  0.91535718  0.17660173  1
  Li  Li7  1  0.00739764  0.74417217  0.05578408  1
  Si  Si8  1  0.75398960  0.45701800  0.22342810  1
  Si  Si9  1  0.25095601  0.95217915  0.42544057  1
  Si  Si10  1  0.26563340  0.61977100  0.72342810  1
  Si  Si11  1  0.76866599  0.12460785  0.92544057  1
  S  S12  1  0.76135659  0.44976362  0.89109585  1
  S  S13  1  0.91027063  0.57508048  0.34037743  1
  S  S14  1  0.25826541  0.62702438  0.39109585  1
  S  S15  1  0.41981204  0.49000066  0.83432063  1
  S  S16  1  0.59981096  0.58678534  0.33432063  1
  S  S17  1  0.93032693  0.01762041  0.81535237  1
  S  S18  1  0.10935137  0.50170752  0.84037743  1
  S  S19  1  0.40075133  0.09993403  0.31813512  1
  S  S20  1  0.75700095  0.12637380  0.25991147  1
  S  S21  1  0.08929907  0.05916759  0.31535137  1
  S  S22  1  0.26262205  0.95041420  0.75991147  1
  S  S23  1  0.61887167  0.97685297  0.81813512  1
