# generated using pymatgen
data_Li4SiGeS6
_symmetry_space_group_name_H-M   'P 1'
_cell_length_a   6.64640110
_cell_length_b   6.37643152
_cell_length_c   13.87257352
_cell_angle_alpha   84.26984635
_cell_angle_beta   96.80418883
_cell_angle_gamma   116.81478961
_symmetry_Int_Tables_number   1
_chemical_formula_structural   Li4SiGeS6
_chemical_formula_sum   'Li8 Si2 Ge2 S12'
_cell_volume   520.29413025
_cell_formula_units_Z   2
loop_
 _symmetry_equiv_pos_site_id
 _symmetry_equiv_pos_as_xyz
  1  'x, y, z'
loop_
 _atom_site_type_symbol
 _atom_site_label
 _atom_site_symmetry_multiplicity
 _atom_site_fract_x
 _atom_site_fract_y
 _atom_site_fract_z
 _atom_site_occupancy
  Li  Li0  1  0.72543503  0.19033950  0.27876103  1
  Li  Li1  1  0.47912667  0.72564982  0.63603094  1
  Li  Li2  1  0.69854854  0.72039140  0.05170506  1
  Li  Li3  1  0.77276360  0.68132087  0.29688143  1
  Li  Li4  1  -0.05969977  0.39037514  0.01033782  1
  Li  Li5  1  0.53864958  0.05753568  0.85878921  1
  Li  Li6  1  0.78486708  0.38108256  0.60023003  1
  Li  Li7  1  0.21743000  0.39087467  0.84810699  1
  Si  Si8  1  0.22632084  0.72330845  0.24642002  1
  Si  Si9  1  0.89663923  0.73966379  0.86632298  1
  Ge  Ge10  1  0.29155364  0.23490812  0.38987388  1
  Ge  Ge11  1  0.15206145  0.06617093  0.64147380  1
  S  S12  1  0.53999677  0.82946115  0.19169410  1
  S  S13  1  0.48272915  0.06889433  0.68389677  1
  S  S14  1  0.91911922  0.51637867  0.16565511  1
  S  S15  1  0.61154461  0.44192628  0.91926371  1
  S  S16  1  0.15249685  0.03236807  0.25028518  1
  S  S17  1  0.14051755  0.39207779  0.67111713  1
  S  S18  1  0.19916982  0.71782205  0.91479604  1
  S  S19  1  0.65468485  0.34512715  0.41922445  1
  S  S20  1  0.84843755  0.74161135  0.70404530  1
  S  S21  1  0.21289928  0.55455060  0.39163323  1
  S  S22  1  0.89236761  0.03863835  0.91979157  1
  S  S23  1  0.03360785  -0.03961171  0.48474023  1
