data_45_contcar
_audit_creation_date              2024-02-08
_audit_creation_method            'Materials Studio'
_symmetry_space_group_name_H-M    'P1'
_symmetry_Int_Tables_number       1
_symmetry_cell_setting            triclinic
loop_
_symmetry_equiv_pos_as_xyz
  x,y,z
_cell_length_a                    13.4667
_cell_length_b                    13.6250
_cell_length_c                    12.9625
_cell_angle_alpha                 99.4755
_cell_angle_beta                  84.1475
_cell_angle_gamma                 120.1289
loop_
_atom_site_label
_atom_site_type_symbol
_atom_site_fract_x
_atom_site_fract_y
_atom_site_fract_z
_atom_site_U_iso_or_equiv
_atom_site_adp_type
_atom_site_occupancy
Li1    Li    0.31630   0.13372   0.34120   0.00000  Uiso   1.00
Li2    Li    0.29662   0.33651   0.61330   0.00000  Uiso   1.00
Li3    Li    0.31572   0.23428   0.09074   0.00000  Uiso   1.00
Li4    Li    0.45219   0.45421   0.36370   0.00000  Uiso   1.00
Li5    Li    0.44977   0.03587   0.08099   0.00000  Uiso   1.00
Li6    Li    0.28997   0.02647   0.85040   0.00000  Uiso   1.00
Li7    Li    0.12950   0.00665   0.61950   0.00000  Uiso   1.00
Li8    Li    0.12536   0.19905   0.85642   0.00000  Uiso   1.00
Si9    Si    0.13142   0.42742   0.20889   0.00000  Uiso   1.00
Si10   Si   -0.03728   0.35937   0.86305   0.00000  Uiso   1.00
Ge11   Ge    0.13999   0.28218   0.36480   0.00000  Uiso   1.00
Ge12   Ge   -0.03153   0.17020   0.62249   0.00000  Uiso   1.00
S13    S     0.12833   0.26091   0.18642   0.00000  Uiso   1.00
S14    S    -0.19548   0.01843   0.65185   0.00000  Uiso   1.00
S15    S     0.28574   0.56140   0.16041   0.00000  Uiso   1.00
S16    S    -0.19270   0.21740   0.90614   0.00000  Uiso   1.00
S17    S    -0.02461   0.41456   0.18057   0.00000  Uiso   1.00
S18    S     0.12448   0.17718   0.66483   0.00000  Uiso   1.00
S19    S     0.11061   0.36973   0.91119   0.00000  Uiso   1.00
S20    S     0.29110   0.29074   0.42173   0.00000  Uiso   1.00
S21    S    -0.03593   0.33610   0.67868   0.00000  Uiso   1.00
S22    S     0.13888   0.45199   0.38717   0.00000  Uiso   1.00
S23    S    -0.04175   0.51466   0.89572   0.00000  Uiso   1.00
S24    S    -0.02725   0.14725   0.43250   0.00000  Uiso   1.00
Li25   Li    0.81630   0.13372   0.34120   0.00000  Uiso   1.00
Li26   Li    0.79662   0.33651   0.61330   0.00000  Uiso   1.00
Li27   Li    0.81572   0.23428   0.09074   0.00000  Uiso   1.00
Li28   Li    0.95219   0.45421   0.36370   0.00000  Uiso   1.00
Li29   Li    0.94977   0.03587   0.08099   0.00000  Uiso   1.00
Li30   Li    0.78997   0.02647   0.85040   0.00000  Uiso   1.00
Li31   Li    0.62950   0.00665   0.61950   0.00000  Uiso   1.00
Li32   Li    0.62536   0.19905   0.85642   0.00000  Uiso   1.00
Si33   Si    0.63142   0.42742   0.20889   0.00000  Uiso   1.00
Si34   Si    0.46272   0.35937   0.86305   0.00000  Uiso   1.00
Ge35   Ge    0.63999   0.28218   0.36480   0.00000  Uiso   1.00
Ge36   Ge    0.46847   0.17020   0.62249   0.00000  Uiso   1.00
S37    S     0.62833   0.26091   0.18642   0.00000  Uiso   1.00
S38    S     0.30452   0.01843   0.65185   0.00000  Uiso   1.00
S39    S     0.78574   0.56140   0.16041   0.00000  Uiso   1.00
S40    S     0.30730   0.21740   0.90614   0.00000  Uiso   1.00
S41    S     0.47539   0.41456   0.18057   0.00000  Uiso   1.00
S42    S     0.62448   0.17718   0.66483   0.00000  Uiso   1.00
S43    S     0.61061   0.36973   0.91119   0.00000  Uiso   1.00
S44    S     0.79110   0.29074   0.42173   0.00000  Uiso   1.00
S45    S     0.46407   0.33610   0.67868   0.00000  Uiso   1.00
S46    S     0.63888   0.45199   0.38717   0.00000  Uiso   1.00
S47    S     0.45825   0.51466   0.89572   0.00000  Uiso   1.00
S48    S     0.47275   0.14725   0.43250   0.00000  Uiso   1.00
Li49   Li    0.31630   0.63372   0.34120   0.00000  Uiso   1.00
Li50   Li    0.29662   0.83651   0.61330   0.00000  Uiso   1.00
Li51   Li    0.31572   0.73428   0.09074   0.00000  Uiso   1.00
Li52   Li    0.45219   0.95421   0.36370   0.00000  Uiso   1.00
Li53   Li    0.44977   0.53587   0.08099   0.00000  Uiso   1.00
Li54   Li    0.28997   0.52647   0.85040   0.00000  Uiso   1.00
Li55   Li    0.12950   0.50665   0.61950   0.00000  Uiso   1.00
Li56   Li    0.12536   0.69905   0.85642   0.00000  Uiso   1.00
Si57   Si    0.13142   0.92742   0.20889   0.00000  Uiso   1.00
Si58   Si   -0.03728   0.85937   0.86305   0.00000  Uiso   1.00
Ge59   Ge    0.13999   0.78218   0.36480   0.00000  Uiso   1.00
Ge60   Ge   -0.03153   0.67020   0.62249   0.00000  Uiso   1.00
S61    S     0.12833   0.76091   0.18642   0.00000  Uiso   1.00
S62    S    -0.19548   0.51843   0.65185   0.00000  Uiso   1.00
S63    S     0.28574   1.06140   0.16041   0.00000  Uiso   1.00
S64    S    -0.19270   0.71740   0.90614   0.00000  Uiso   1.00
S65    S    -0.02461   0.91456   0.18057   0.00000  Uiso   1.00
S66    S     0.12448   0.67718   0.66483   0.00000  Uiso   1.00
S67    S     0.11061   0.86973   0.91119   0.00000  Uiso   1.00
S68    S     0.29110   0.79074   0.42173   0.00000  Uiso   1.00
S69    S    -0.03593   0.83610   0.67868   0.00000  Uiso   1.00
S70    S     0.13888   0.95199   0.38717   0.00000  Uiso   1.00
S71    S    -0.04175   1.01466   0.89572   0.00000  Uiso   1.00
S72    S    -0.02725   0.64725   0.43250   0.00000  Uiso   1.00
Li73   Li    0.81630   0.63372   0.34120   0.00000  Uiso   1.00
Li74   Li    0.79662   0.83651   0.61330   0.00000  Uiso   1.00
Li75   Li    0.81572   0.73428   0.09074   0.00000  Uiso   1.00
Li76   Li    0.95219   0.95421   0.36370   0.00000  Uiso   1.00
Li77   Li    0.94977   0.53587   0.08099   0.00000  Uiso   1.00
Li78   Li    0.78997   0.52647   0.85040   0.00000  Uiso   1.00
Li79   Li    0.62950   0.50665   0.61950   0.00000  Uiso   1.00
Li80   Li    0.62536   0.69905   0.85642   0.00000  Uiso   1.00
Si81   Si    0.63142   0.92742   0.20889   0.00000  Uiso   1.00
Si82   Si    0.46272   0.85937   0.86305   0.00000  Uiso   1.00
Ge83   Ge    0.63999   0.78218   0.36480   0.00000  Uiso   1.00
Ge84   Ge    0.46847   0.67020   0.62249   0.00000  Uiso   1.00
S85    S     0.62833   0.76091   0.18642   0.00000  Uiso   1.00
S86    S     0.30452   0.51843   0.65185   0.00000  Uiso   1.00
S87    S     0.78574   1.06140   0.16041   0.00000  Uiso   1.00
S88    S     0.30730   0.71740   0.90614   0.00000  Uiso   1.00
S89    S     0.47539   0.91456   0.18057   0.00000  Uiso   1.00
S90    S     0.62448   0.67718   0.66483   0.00000  Uiso   1.00
S91    S     0.61061   0.86973   0.91119   0.00000  Uiso   1.00
S92    S     0.79110   0.79074   0.42173   0.00000  Uiso   1.00
S93    S     0.46407   0.83610   0.67868   0.00000  Uiso   1.00
S94    S     0.63888   0.95199   0.38717   0.00000  Uiso   1.00
S95    S     0.45825   1.01466   0.89572   0.00000  Uiso   1.00
S96    S     0.47275   0.64725   0.43250   0.00000  Uiso   1.00
loop_
_geom_bond_atom_site_label_1
_geom_bond_atom_site_label_2
_geom_bond_distance
_geom_bond_site_symmetry_2
_ccdc_geom_bond_type
Si9    S13     2.219   .     S
Si9    S15     2.085   .     S
Si9    S17     2.085   .     S
Si9    S22     2.285   .     S
Si10   S16     2.118   .     S
Si10   S19     2.078   .     S
Si10   S21     2.358   .     S
Si10   S23     2.118   .     S
Ge11   S13     2.294   .     S
Ge11   S20     2.177   .     S
Ge11   S22     2.291   .     S
Ge11   S24     2.279   .     S
Ge12   S14     2.191   .     S
Ge12   S18     2.177   .     S
Ge12   S21     2.286   .     S
Ge12   S24     2.429   .     S
Si33   S37     2.219   .     S
Si33   S39     2.085   .     S
Si33   S41     2.085   .     S
Si33   S46     2.285   .     S
Si34   S40     2.118   .     S
Si34   S43     2.078   .     S
Si34   S45     2.358   .     S
Si34   S47     2.118   .     S
Ge35   S37     2.294   .     S
Ge35   S44     2.177   .     S
Ge35   S46     2.291   .     S
Ge35   S48     2.279   .     S
Ge36   S38     2.191   .     S
Ge36   S42     2.177   .     S
Ge36   S45     2.286   .     S
Ge36   S48     2.429   .     S
Si57   S61     2.219   .     S
Si57   S63     2.085   .     S
Si57   S65     2.085   .     S
Si57   S70     2.285   .     S
Si58   S64     2.118   .     S
Si58   S67     2.078   .     S
Si58   S69     2.358   .     S
Si58   S71     2.118   .     S
Ge59   S61     2.294   .     S
Ge59   S68     2.177   .     S
Ge59   S70     2.291   .     S
Ge59   S72     2.279   .     S
Ge60   S62     2.191   .     S
Ge60   S66     2.177   .     S
Ge60   S69     2.286   .     S
Ge60   S72     2.429   .     S
Si81   S85     2.219   .     S
Si81   S87     2.085   .     S
Si81   S89     2.085   .     S
Si81   S94     2.285   .     S
Si82   S88     2.118   .     S
Si82   S91     2.078   .     S
Si82   S93     2.358   .     S
Si82   S95     2.118   .     S
Ge83   S85     2.294   .     S
Ge83   S92     2.177   .     S
Ge83   S94     2.291   .     S
Ge83   S96     2.279   .     S
Ge84   S86     2.191   .     S
Ge84   S90     2.177   .     S
Ge84   S93     2.286   .     S
Ge84   S96     2.429   .     S
