data_Li3PS4_162_contcar_sym_gamma_t6
_audit_creation_date              2025-07-02
_audit_creation_method            'Materials Studio'
_symmetry_space_group_name_H-M    'I-42M'
_symmetry_Int_Tables_number       121
_symmetry_cell_setting            tetragonal
loop_
_symmetry_equiv_pos_as_xyz
  x,y,z
  -x,-y,z
  y,-x,-z
  -y,x,-z
  -x,y,-z
  x,-y,-z
  -y,-x,z
  y,x,z
  x+1/2,y+1/2,z+1/2
  -x+1/2,-y+1/2,z+1/2
  y+1/2,-x+1/2,-z+1/2
  -y+1/2,x+1/2,-z+1/2
  -x+1/2,y+1/2,-z+1/2
  x+1/2,-y+1/2,-z+1/2
  -y+1/2,-x+1/2,z+1/2
  y+1/2,x+1/2,z+1/2
_cell_length_a                    5.6444
_cell_length_b                    5.6444
_cell_length_c                    9.8886
_cell_angle_alpha                 90.0000
_cell_angle_beta                  90.0000
_cell_angle_gamma                 90.0000
loop_
_atom_site_label
_atom_site_type_symbol
_atom_site_fract_x
_atom_site_fract_y
_atom_site_fract_z
_atom_site_U_iso_or_equiv
_atom_site_adp_type
_atom_site_occupancy
Li0    Li   -0.00000  -0.00000   0.50000   0.00000  Uiso   1.00
Li2    Li   -0.00000   0.50000   1.25000   0.00000  Uiso   1.00
P12    P    -0.50000  -0.50000   0.50000   0.00000  Uiso   1.00
S16    S    -0.28794  -0.28794   0.61888   0.00000  Uiso   1.00
loop_
_geom_bond_atom_site_label_1
_geom_bond_atom_site_label_2
_geom_bond_distance
_geom_bond_site_symmetry_2
_ccdc_geom_bond_type
P12    S16     2.061   .     A
P12    S16     2.061   2_445 A
P12    S16     2.061   3_546 A
P12    S16     2.061   4_456 A
