data_Li2BPt3_C-selectedcfg_02_contcar
_audit_creation_date              2025-07-02
_audit_creation_method            'Materials Studio'
_symmetry_space_group_name_H-M    'P1'
_symmetry_Int_Tables_number       1
_symmetry_cell_setting            triclinic
loop_
_symmetry_equiv_pos_as_xyz
  x,y,z
_cell_length_a                    6.8293
_cell_length_b                    6.8293
_cell_length_c                    6.8293
_cell_angle_alpha                 89.9731
_cell_angle_beta                  89.9731
_cell_angle_gamma                 89.9731
loop_
_atom_site_label
_atom_site_type_symbol
_atom_site_fract_x
_atom_site_fract_y
_atom_site_fract_z
_atom_site_U_iso_or_equiv
_atom_site_adp_type
_atom_site_occupancy
Li0    Li    0.99240   0.99240   0.99240   0.00000  Uiso   1.00
Li1    Li    0.49241   0.60376   0.10376   0.00000  Uiso   1.00
Li2    Li    0.10376   0.49241   0.60376   0.00000  Uiso   1.00
Li3    Li    0.60376   0.10376   0.49241   0.00000  Uiso   1.00
Li4    Li    0.35370   0.35370   0.35370   0.00000  Uiso   1.00
Li5    Li    0.85376   0.24246   0.74242   0.00000  Uiso   1.00
Li6    Li    0.74242   0.85376   0.24246   0.00000  Uiso   1.00
Li7    Li    0.24246   0.74242   0.85376   0.00000  Uiso   1.00
B8     B     0.67302   0.67302   0.67302   0.00000  Uiso   1.00
B9     B     0.17310   0.92293   0.42297   0.00000  Uiso   1.00
B10    B     0.42297   0.17310   0.92293   0.00000  Uiso   1.00
B11    B     0.92293   0.42297   0.17310   0.00000  Uiso   1.00
Pt12   Pt    0.17281   0.35646   0.98940   0.00000  Uiso   1.00
Pt13   Pt    0.67287   0.23952   0.10649   0.00000  Uiso   1.00
Pt14   Pt    0.92277   0.85652   0.60654   0.00000  Uiso   1.00
Pt15   Pt    0.42293   0.73935   0.48943   0.00000  Uiso   1.00
Pt16   Pt    0.35646   0.98940   0.17281   0.00000  Uiso   1.00
Pt17   Pt    0.85652   0.60654   0.92277   0.00000  Uiso   1.00
Pt18   Pt    0.73935   0.48943   0.42293   0.00000  Uiso   1.00
Pt19   Pt    0.23952   0.10649   0.67287   0.00000  Uiso   1.00
Pt20   Pt    0.98940   0.17281   0.35646   0.00000  Uiso   1.00
Pt21   Pt    0.48943   0.42293   0.73935   0.00000  Uiso   1.00
Pt22   Pt    0.10649   0.67287   0.23952   0.00000  Uiso   1.00
Pt23   Pt    0.60654   0.92277   0.85652   0.00000  Uiso   1.00
