data_195_contcar\(2)
_audit_creation_date              2024-02-16
_audit_creation_method            'Materials Studio'
_symmetry_space_group_name_H-M    'P1'
_symmetry_Int_Tables_number       1
_symmetry_cell_setting            triclinic
loop_
_symmetry_equiv_pos_as_xyz
  x,y,z
_cell_length_a                    11.8060
_cell_length_b                    13.2542
_cell_length_c                    13.2108
_cell_angle_alpha                 89.2958
_cell_angle_beta                  94.3181
_cell_angle_gamma                 89.8873
loop_
_atom_site_label
_atom_site_type_symbol
_atom_site_fract_x
_atom_site_fract_y
_atom_site_fract_z
_atom_site_U_iso_or_equiv
_atom_site_adp_type
_atom_site_occupancy
Li1    Li    0.19139   0.42470   0.08954   0.00000  Uiso   1.00
Li2    Li    0.38849   0.31734   0.44244   0.00000  Uiso   1.00
Li3    Li    0.35937   0.18307   0.19965   0.00000  Uiso   1.00
Li4    Li    0.22050   0.05897   0.33232   0.00000  Uiso   1.00
Li5    Li    0.69139   0.17470   0.08954   0.00000  Uiso   1.00
Li6    Li    0.88849   0.06734   0.44244   0.00000  Uiso   1.00
Li7    Li    0.85938   0.43307   0.19965   0.00000  Uiso   1.00
Li8    Li    0.72050   0.30897   0.33232   0.00000  Uiso   1.00
Si9    Si    0.03372   0.16245   0.19022   0.00000  Uiso   1.00
Si10   Si    0.54616   0.57958   0.34175   0.00000  Uiso   1.00
Si11   Si    0.53372   0.41245   0.19022   0.00000  Uiso   1.00
Si12   Si    0.04616   0.32958   0.34175   0.00000  Uiso   1.00
S13    S     0.38471   0.34855   0.12518   0.00000  Uiso   1.00
S14    S     0.19516   0.39348   0.40680   0.00000  Uiso   1.00
S15    S     0.18385   0.09737   0.14679   0.00000  Uiso   1.00
S16    S     0.39603   0.64466   0.38518   0.00000  Uiso   1.00
S17    S     0.03773   0.32802   0.17380   0.00000  Uiso   1.00
S18    S     0.54214   0.41402   0.35818   0.00000  Uiso   1.00
S19    S    -0.11529   0.09856   0.12518   0.00000  Uiso   1.00
S20    S     0.69516   0.64348   0.40680   0.00000  Uiso   1.00
S21    S     0.68385   0.34738   0.14679   0.00000  Uiso   1.00
S22    S    -0.10397   0.39466   0.38518   0.00000  Uiso   1.00
S23    S     0.53773   0.57802   0.17380   0.00000  Uiso   1.00
S24    S     0.04214   0.16402   0.35818   0.00000  Uiso   1.00
Li25   Li    0.19139   0.92470   0.08954   0.00000  Uiso   1.00
Li26   Li    0.38849   0.81734   0.44244   0.00000  Uiso   1.00
Li27   Li    0.35937   0.68307   0.19965   0.00000  Uiso   1.00
Li28   Li    0.22050   0.55897   0.33232   0.00000  Uiso   1.00
Li29   Li    0.69139   0.67470   0.08954   0.00000  Uiso   1.00
Li30   Li    0.88849   0.56734   0.44244   0.00000  Uiso   1.00
Li31   Li    0.85938   0.93307   0.19965   0.00000  Uiso   1.00
Li32   Li    0.72050   0.80897   0.33232   0.00000  Uiso   1.00
Si33   Si    0.03372   0.66245   0.19022   0.00000  Uiso   1.00
Si34   Si    0.54616   1.07958   0.34175   0.00000  Uiso   1.00
Si35   Si    0.53372   0.91245   0.19022   0.00000  Uiso   1.00
Si36   Si    0.04616   0.82958   0.34175   0.00000  Uiso   1.00
S37    S     0.38471   0.84855   0.12518   0.00000  Uiso   1.00
S38    S     0.19516   0.89348   0.40680   0.00000  Uiso   1.00
S39    S     0.18385   0.59737   0.14679   0.00000  Uiso   1.00
S40    S     0.39603   1.14466   0.38518   0.00000  Uiso   1.00
S41    S     0.03773   0.82802   0.17380   0.00000  Uiso   1.00
S42    S     0.54214   0.91402   0.35818   0.00000  Uiso   1.00
S43    S    -0.11529   0.59856   0.12518   0.00000  Uiso   1.00
S44    S     0.69516   1.14348   0.40680   0.00000  Uiso   1.00
S45    S     0.68385   0.84738   0.14679   0.00000  Uiso   1.00
S46    S    -0.10397   0.89466   0.38518   0.00000  Uiso   1.00
S47    S     0.53773   1.07802   0.17380   0.00000  Uiso   1.00
S48    S     0.04214   0.66402   0.35818   0.00000  Uiso   1.00
Li49   Li    0.19139   0.42470   0.58954   0.00000  Uiso   1.00
Li50   Li    0.38849   0.31734   0.94244   0.00000  Uiso   1.00
Li51   Li    0.35937   0.18307   0.69965   0.00000  Uiso   1.00
Li52   Li    0.22050   0.05897   0.83232   0.00000  Uiso   1.00
Li53   Li    0.69139   0.17470   0.58954   0.00000  Uiso   1.00
Li54   Li    0.88849   0.06734   0.94244   0.00000  Uiso   1.00
Li55   Li    0.85938   0.43307   0.69965   0.00000  Uiso   1.00
Li56   Li    0.72050   0.30897   0.83232   0.00000  Uiso   1.00
Si57   Si    0.03372   0.16245   0.69022   0.00000  Uiso   1.00
Si58   Si    0.54616   0.57958   0.84175   0.00000  Uiso   1.00
Si59   Si    0.53372   0.41245   0.69022   0.00000  Uiso   1.00
Si60   Si    0.04616   0.32958   0.84175   0.00000  Uiso   1.00
S61    S     0.38471   0.34855   0.62518   0.00000  Uiso   1.00
S62    S     0.19516   0.39348   0.90680   0.00000  Uiso   1.00
S63    S     0.18385   0.09737   0.64679   0.00000  Uiso   1.00
S64    S     0.39603   0.64466   0.88518   0.00000  Uiso   1.00
S65    S     0.03773   0.32802   0.67380   0.00000  Uiso   1.00
S66    S     0.54214   0.41402   0.85818   0.00000  Uiso   1.00
S67    S    -0.11529   0.09856   0.62518   0.00000  Uiso   1.00
S68    S     0.69516   0.64348   0.90680   0.00000  Uiso   1.00
S69    S     0.68385   0.34738   0.64679   0.00000  Uiso   1.00
S70    S    -0.10397   0.39466   0.88518   0.00000  Uiso   1.00
S71    S     0.53773   0.57802   0.67380   0.00000  Uiso   1.00
S72    S     0.04214   0.16402   0.85818   0.00000  Uiso   1.00
Li73   Li    0.19139   0.92470   0.58954   0.00000  Uiso   1.00
Li74   Li    0.38849   0.81734   0.94244   0.00000  Uiso   1.00
Li75   Li    0.35937   0.68307   0.69965   0.00000  Uiso   1.00
Li76   Li    0.22050   0.55897   0.83232   0.00000  Uiso   1.00
Li77   Li    0.69139   0.67470   0.58954   0.00000  Uiso   1.00
Li78   Li    0.88849   0.56734   0.94244   0.00000  Uiso   1.00
Li79   Li    0.85938   0.93307   0.69965   0.00000  Uiso   1.00
Li80   Li    0.72050   0.80897   0.83232   0.00000  Uiso   1.00
Si81   Si    0.03372   0.66245   0.69022   0.00000  Uiso   1.00
Si82   Si    0.54616   1.07958   0.84175   0.00000  Uiso   1.00
Si83   Si    0.53372   0.91245   0.69022   0.00000  Uiso   1.00
Si84   Si    0.04616   0.82958   0.84175   0.00000  Uiso   1.00
S85    S     0.38471   0.84855   0.62518   0.00000  Uiso   1.00
S86    S     0.19516   0.89348   0.90680   0.00000  Uiso   1.00
S87    S     0.18385   0.59737   0.64679   0.00000  Uiso   1.00
S88    S     0.39603   1.14466   0.88518   0.00000  Uiso   1.00
S89    S     0.03773   0.82802   0.67380   0.00000  Uiso   1.00
S90    S     0.54214   0.91402   0.85818   0.00000  Uiso   1.00
S91    S    -0.11529   0.59856   0.62518   0.00000  Uiso   1.00
S92    S     0.69516   1.14348   0.90680   0.00000  Uiso   1.00
S93    S     0.68385   0.84738   0.64679   0.00000  Uiso   1.00
S94    S    -0.10397   0.89466   0.88518   0.00000  Uiso   1.00
S95    S     0.53773   1.07802   0.67380   0.00000  Uiso   1.00
S96    S     0.04214   0.66402   0.85818   0.00000  Uiso   1.00
loop_
_geom_bond_atom_site_label_1
_geom_bond_atom_site_label_2
_geom_bond_distance
_geom_bond_site_symmetry_2
_ccdc_geom_bond_type
Si9    S15     2.091   .     S
Si9    S17     2.203   .     S
Si9    S19     2.085   .     S
Si9    S24     2.214   .     S
Si10   S16     2.091   .     S
Si10   S18     2.203   .     S
Si10   S20     2.085   .     S
Si10   S23     2.214   .     S
Si11   S13     2.085   .     S
Si11   S18     2.214   .     S
Si11   S21     2.091   .     S
Si11   S23     2.203   .     S
Si12   S14     2.085   .     S
Si12   S17     2.214   .     S
Si12   S22     2.091   .     S
Si12   S24     2.203   .     S
Si33   S39     2.091   .     S
Si33   S41     2.203   .     S
Si33   S43     2.085   .     S
Si33   S48     2.214   .     S
Si34   S40     2.091   .     S
Si34   S42     2.203   .     S
Si34   S44     2.085   .     S
Si34   S47     2.214   .     S
Si35   S37     2.085   .     S
Si35   S42     2.214   .     S
Si35   S45     2.091   .     S
Si35   S47     2.203   .     S
Si36   S38     2.085   .     S
Si36   S41     2.214   .     S
Si36   S46     2.091   .     S
Si36   S48     2.203   .     S
Si57   S63     2.091   .     S
Si57   S65     2.203   .     S
Si57   S67     2.085   .     S
Si57   S72     2.214   .     S
Si58   S64     2.091   .     S
Si58   S66     2.203   .     S
Si58   S68     2.085   .     S
Si58   S71     2.214   .     S
Si59   S61     2.085   .     S
Si59   S66     2.214   .     S
Si59   S69     2.091   .     S
Si59   S71     2.203   .     S
Si60   S62     2.085   .     S
Si60   S65     2.214   .     S
Si60   S70     2.091   .     S
Si60   S72     2.203   .     S
Si81   S87     2.091   .     S
Si81   S89     2.203   .     S
Si81   S91     2.085   .     S
Si81   S96     2.214   .     S
Si82   S88     2.091   .     S
Si82   S90     2.203   .     S
Si82   S92     2.085   .     S
Si82   S95     2.214   .     S
Si83   S85     2.085   .     S
Si83   S90     2.214   .     S
Si83   S93     2.091   .     S
Si83   S95     2.203   .     S
Si84   S86     2.085   .     S
Si84   S89     2.214   .     S
Si84   S94     2.091   .     S
Si84   S96     2.203   .     S
