data_16_contcar\(2)
_audit_creation_date              2024-02-16
_audit_creation_method            'Materials Studio'
_symmetry_space_group_name_H-M    'P1'
_symmetry_Int_Tables_number       1
_symmetry_cell_setting            triclinic
loop_
_symmetry_equiv_pos_as_xyz
  x,y,z
_cell_length_a                    11.6802
_cell_length_b                    13.6237
_cell_length_c                    12.0057
_cell_angle_alpha                 90.0000
_cell_angle_beta                  90.0000
_cell_angle_gamma                 90.1328
loop_
_atom_site_label
_atom_site_type_symbol
_atom_site_fract_x
_atom_site_fract_y
_atom_site_fract_z
_atom_site_U_iso_or_equiv
_atom_site_adp_type
_atom_site_occupancy
Li1    Li    0.95811   0.06940   0.19995   0.00000  Uiso   1.00
Li2    Li    0.45811   0.31940   0.19995   0.00000  Uiso   1.00
Li3    Li    0.62920   0.22425   0.44995   0.00000  Uiso   1.00
Li4    Li    0.12920   0.47425   0.44995   0.00000  Uiso   1.00
Li5    Li    0.12687   0.31898   0.20112   0.00000  Uiso   1.00
Li6    Li    0.62686   0.06898   0.20112   0.00000  Uiso   1.00
Li7    Li    0.46044   0.47467   0.45112   0.00000  Uiso   1.00
Li8    Li    0.96045   0.22467   0.45112   0.00000  Uiso   1.00
Si9    Si    0.29287   0.06442   0.20779   0.00000  Uiso   1.00
Si10   Si    0.79288   0.31442   0.20779   0.00000  Uiso   1.00
Si11   Si    0.29443   0.22923   0.45779   0.00000  Uiso   1.00
Si12   Si    0.79443   0.47923   0.45779   0.00000  Uiso   1.00
S13    S     0.29467   0.07771   0.02181   0.00000  Uiso   1.00
S14    S     0.79467   0.32771   0.02181   0.00000  Uiso   1.00
S15    S     0.29264   0.21594   0.27181   0.00000  Uiso   1.00
S16    S     0.79264   0.46594   0.27181   0.00000  Uiso   1.00
S17    S     0.94641   0.05111   0.49947   0.00000  Uiso   1.00
S18    S     0.44641   0.30111   0.49947   0.00000  Uiso   1.00
S19    S     0.64090   0.24255   0.24947   0.00000  Uiso   1.00
S20    S     0.14090   0.49254   0.24947   0.00000  Uiso   1.00
S21    S     0.94415   0.24246   0.25085   0.00000  Uiso   1.00
S22    S     0.44415   0.49246   0.25085   0.00000  Uiso   1.00
S23    S     0.64316   0.05120   0.00085   0.00000  Uiso   1.00
S24    S     0.14316   0.30120   0.00085   0.00000  Uiso   1.00
Li25   Li    0.95811   0.56940   0.19995   0.00000  Uiso   1.00
Li26   Li    0.45811   0.81940   0.19995   0.00000  Uiso   1.00
Li27   Li    0.62920   0.72425   0.44995   0.00000  Uiso   1.00
Li28   Li    0.12920   0.97425   0.44995   0.00000  Uiso   1.00
Li29   Li    0.12687   0.81898   0.20112   0.00000  Uiso   1.00
Li30   Li    0.62686   0.56898   0.20112   0.00000  Uiso   1.00
Li31   Li    0.46044   0.97467   0.45112   0.00000  Uiso   1.00
Li32   Li    0.96045   0.72467   0.45112   0.00000  Uiso   1.00
Si33   Si    0.29287   0.56442   0.20779   0.00000  Uiso   1.00
Si34   Si    0.79288   0.81442   0.20779   0.00000  Uiso   1.00
Si35   Si    0.29443   0.72923   0.45779   0.00000  Uiso   1.00
Si36   Si    0.79443   0.97923   0.45779   0.00000  Uiso   1.00
S37    S     0.29467   0.57771   0.02181   0.00000  Uiso   1.00
S38    S     0.79467   0.82771   0.02181   0.00000  Uiso   1.00
S39    S     0.29264   0.71594   0.27181   0.00000  Uiso   1.00
S40    S     0.79264   0.96594   0.27181   0.00000  Uiso   1.00
S41    S     0.94641   0.55111   0.49947   0.00000  Uiso   1.00
S42    S     0.44641   0.80111   0.49947   0.00000  Uiso   1.00
S43    S     0.64090   0.74255   0.24947   0.00000  Uiso   1.00
S44    S     0.14090   0.99254   0.24947   0.00000  Uiso   1.00
S45    S     0.94415   0.74246   0.25085   0.00000  Uiso   1.00
S46    S     0.44415   0.99246   0.25085   0.00000  Uiso   1.00
S47    S     0.64316   0.55120   0.00085   0.00000  Uiso   1.00
S48    S     0.14316   0.80120   0.00085   0.00000  Uiso   1.00
Li49   Li    0.95811   0.06940   0.69995   0.00000  Uiso   1.00
Li50   Li    0.45811   0.31940   0.69995   0.00000  Uiso   1.00
Li51   Li    0.62920   0.22425   0.94995   0.00000  Uiso   1.00
Li52   Li    0.12920   0.47425   0.94995   0.00000  Uiso   1.00
Li53   Li    0.12687   0.31898   0.70112   0.00000  Uiso   1.00
Li54   Li    0.62686   0.06898   0.70112   0.00000  Uiso   1.00
Li55   Li    0.46044   0.47467   0.95112   0.00000  Uiso   1.00
Li56   Li    0.96045   0.22467   0.95112   0.00000  Uiso   1.00
Si57   Si    0.29287   0.06442   0.70779   0.00000  Uiso   1.00
Si58   Si    0.79288   0.31442   0.70779   0.00000  Uiso   1.00
Si59   Si    0.29443   0.22923   0.95779   0.00000  Uiso   1.00
Si60   Si    0.79443   0.47923   0.95779   0.00000  Uiso   1.00
S61    S     0.29467   0.07771   0.52181   0.00000  Uiso   1.00
S62    S     0.79467   0.32771   0.52181   0.00000  Uiso   1.00
S63    S     0.29264   0.21594   0.77181   0.00000  Uiso   1.00
S64    S     0.79264   0.46594   0.77181   0.00000  Uiso   1.00
S65    S     0.94641   0.05111   0.99947   0.00000  Uiso   1.00
S66    S     0.44641   0.30111   0.99947   0.00000  Uiso   1.00
S67    S     0.64090   0.24255   0.74947   0.00000  Uiso   1.00
S68    S     0.14090   0.49254   0.74947   0.00000  Uiso   1.00
S69    S     0.94415   0.24246   0.75085   0.00000  Uiso   1.00
S70    S     0.44415   0.49246   0.75085   0.00000  Uiso   1.00
S71    S     0.64316   0.05120   0.50085   0.00000  Uiso   1.00
S72    S     0.14316   0.30120   0.50085   0.00000  Uiso   1.00
Li73   Li    0.95811   0.56940   0.69995   0.00000  Uiso   1.00
Li74   Li    0.45811   0.81940   0.69995   0.00000  Uiso   1.00
Li75   Li    0.62920   0.72425   0.94995   0.00000  Uiso   1.00
Li76   Li    0.12920   0.97425   0.94995   0.00000  Uiso   1.00
Li77   Li    0.12687   0.81898   0.70112   0.00000  Uiso   1.00
Li78   Li    0.62686   0.56898   0.70112   0.00000  Uiso   1.00
Li79   Li    0.46044   0.97467   0.95112   0.00000  Uiso   1.00
Li80   Li    0.96045   0.72467   0.95112   0.00000  Uiso   1.00
Si81   Si    0.29287   0.56442   0.70779   0.00000  Uiso   1.00
Si82   Si    0.79288   0.81442   0.70779   0.00000  Uiso   1.00
Si83   Si    0.29443   0.72923   0.95779   0.00000  Uiso   1.00
Si84   Si    0.79443   0.97923   0.95779   0.00000  Uiso   1.00
S85    S     0.29467   0.57771   0.52181   0.00000  Uiso   1.00
S86    S     0.79467   0.82771   0.52181   0.00000  Uiso   1.00
S87    S     0.29264   0.71594   0.77181   0.00000  Uiso   1.00
S88    S     0.79264   0.96594   0.77181   0.00000  Uiso   1.00
S89    S     0.94641   0.55111   0.99947   0.00000  Uiso   1.00
S90    S     0.44641   0.80111   0.99947   0.00000  Uiso   1.00
S91    S     0.64090   0.74255   0.74947   0.00000  Uiso   1.00
S92    S     0.14090   0.99254   0.74947   0.00000  Uiso   1.00
S93    S     0.94415   0.74246   0.75085   0.00000  Uiso   1.00
S94    S     0.44415   0.99246   0.75085   0.00000  Uiso   1.00
S95    S     0.64316   0.55120   0.50085   0.00000  Uiso   1.00
S96    S     0.14316   0.80120   0.50085   0.00000  Uiso   1.00
