data_1_1x2x1_contcar
_audit_creation_date              2023-03-27
_audit_creation_method            'Materials Studio'
_symmetry_space_group_name_H-M    'P1'
_symmetry_Int_Tables_number       1
_symmetry_cell_setting            triclinic
loop_
_symmetry_equiv_pos_as_xyz
  x,y,z
_cell_length_a                    8.7886
_cell_length_b                    13.2030
_cell_length_c                    8.7730
_cell_angle_alpha                 78.7057
_cell_angle_beta                  86.0676
_cell_angle_gamma                 78.9276
loop_
_atom_site_label
_atom_site_type_symbol
_atom_site_fract_x
_atom_site_fract_y
_atom_site_fract_z
_atom_site_U_iso_or_equiv
_atom_site_adp_type
_atom_site_occupancy
Li1    Li    0.37072   0.17296   0.97318   0.00000  Uiso   1.00
Li2    Li    0.87072   0.42296   0.47319   0.00000  Uiso   1.00
Li3    Li    0.71180   0.16441   0.62716   0.00000  Uiso   1.00
Li4    Li    0.21181   0.41441   0.12716   0.00000  Uiso   1.00
Li5    Li    0.30313   0.29856   0.53588   0.00000  Uiso   1.00
Li6    Li    0.80313   0.04856   0.03588   0.00000  Uiso   1.00
Li7    Li    0.46149   0.03948   0.37490   0.00000  Uiso   1.00
Li8    Li    0.96149   0.28948   0.87490   0.00000  Uiso   1.00
Si9    Si    0.61543   0.28746   0.19836   0.00000  Uiso   1.00
Si10   Si    0.11543   0.03746   0.69836   0.00000  Uiso   1.00
Ge11   Ge    0.02919   0.16055   0.28281   0.00000  Uiso   1.00
Ge12   Ge    0.52919   0.41056   0.78281   0.00000  Uiso   1.00
S13    S     0.70298   0.38311   0.98543   0.00000  Uiso   1.00
S14    S     0.20298   0.13311   0.48543   0.00000  Uiso   1.00
S15    S     0.80375   0.26332   0.36638   0.00000  Uiso   1.00
S16    S     0.30375   0.01332   0.86638   0.00000  Uiso   1.00
S17    S     0.42681   0.37934   0.29551   0.00000  Uiso   1.00
S18    S     0.92681   0.12934   0.79551   0.00000  Uiso   1.00
S19    S     0.57771   0.14425   0.15622   0.00000  Uiso   1.00
S20    S     0.07771   0.39425   0.65623   0.00000  Uiso   1.00
S21    S     0.98748   0.01015   0.24163   0.00000  Uiso   1.00
S22    S     0.48748   0.26015   0.74163   0.00000  Uiso   1.00
S23    S     0.63215   0.00773   0.58519   0.00000  Uiso   1.00
S24    S     0.13215   0.25773   0.08519   0.00000  Uiso   1.00
Li25   Li    0.37072   0.67296   0.97318   0.00000  Uiso   1.00
Li26   Li    0.87072   0.92296   0.47319   0.00000  Uiso   1.00
Li27   Li    0.71180   0.66441   0.62716   0.00000  Uiso   1.00
Li28   Li    0.21181   0.91441   0.12716   0.00000  Uiso   1.00
Li29   Li    0.30313   0.79856   0.53588   0.00000  Uiso   1.00
Li30   Li    0.80313   0.54856   0.03588   0.00000  Uiso   1.00
Li31   Li    0.46149   0.53948   0.37490   0.00000  Uiso   1.00
Li32   Li    0.96149   0.78948   0.87490   0.00000  Uiso   1.00
Si33   Si    0.61543   0.78746   0.19836   0.00000  Uiso   1.00
Si34   Si    0.11543   0.53746   0.69836   0.00000  Uiso   1.00
Ge35   Ge    0.02919   0.66055   0.28281   0.00000  Uiso   1.00
Ge36   Ge    0.52919   0.91056   0.78281   0.00000  Uiso   1.00
S37    S     0.70298   0.88311   0.98543   0.00000  Uiso   1.00
S38    S     0.20298   0.63311   0.48543   0.00000  Uiso   1.00
S39    S     0.80375   0.76332   0.36638   0.00000  Uiso   1.00
S40    S     0.30375   0.51332   0.86638   0.00000  Uiso   1.00
S41    S     0.42681   0.87934   0.29551   0.00000  Uiso   1.00
S42    S     0.92681   0.62934   0.79551   0.00000  Uiso   1.00
S43    S     0.57771   0.64425   0.15622   0.00000  Uiso   1.00
S44    S     0.07771   0.89425   0.65623   0.00000  Uiso   1.00
S45    S     0.98748   0.51015   0.24163   0.00000  Uiso   1.00
S46    S     0.48748   0.76015   0.74163   0.00000  Uiso   1.00
S47    S     0.63215   0.50773   0.58519   0.00000  Uiso   1.00
S48    S     0.13215   0.75773   0.08519   0.00000  Uiso   1.00
loop_
_geom_bond_atom_site_label_1
_geom_bond_atom_site_label_2
_geom_bond_distance
_geom_bond_site_symmetry_2
_ccdc_geom_bond_type
Si9    S13     2.220   1_554 S
Si9    S15     2.227   .     S
Si9    S17     2.094   .     S
Si9    S19     2.086   .     S
Si10   S14     2.220   .     S
Si10   S16     2.227   .     S
Si10   S18     2.094   1_455 S
Si10   S44     2.086   1_545 S
Ge11   S14     2.352   .     S
Ge11   S15     2.337   1_455 S
Ge11   S21     2.188   1_455 S
Ge11   S24     2.198   .     S
Ge12   S13     2.352   .     S
Ge12   S40     2.337   .     S
Ge12   S22     2.188   .     S
Ge12   S47     2.198   .     S
S13    Si9     2.220   1_556 S
S15    Ge11    2.337   1_655 S
S16    Ge36    2.337   1_545 S
S18    Si10    2.094   1_655 S
S20    Si34    2.086   .     S
S21    Ge11    2.188   1_655 S
S23    Ge36    2.198   1_545 S
Si33   S37     2.220   1_554 S
Si33   S39     2.227   .     S
Si33   S41     2.094   .     S
Si33   S43     2.086   .     S
Si34   S38     2.220   .     S
Si34   S40     2.227   .     S
Si34   S42     2.094   1_455 S
Ge35   S38     2.352   .     S
Ge35   S39     2.337   1_455 S
Ge35   S45     2.188   1_455 S
Ge35   S48     2.198   .     S
Ge36   S37     2.352   .     S
Ge36   S16     2.337   1_565 S
Ge36   S46     2.188   .     S
Ge36   S23     2.198   1_565 S
S37    Si33    2.220   1_556 S
S39    Ge35    2.337   1_655 S
S42    Si34    2.094   1_655 S
S44    Si10    2.086   1_565 S
S45    Ge35    2.188   1_655 S
