# generated using pymatgen
data_Li4SiGeS6
_symmetry_space_group_name_H-M   'P 1'
_cell_length_a   7.20534660
_cell_length_b   6.97303666
_cell_length_c   10.38226466
_cell_angle_alpha   88.71519674
_cell_angle_beta   93.56841639
_cell_angle_gamma   92.92258497
_symmetry_Int_Tables_number   1
_chemical_formula_structural   Li4SiGeS6
_chemical_formula_sum   'Li8 Si2 Ge2 S12'
_cell_volume   519.85216375
_cell_formula_units_Z   2
loop_
 _symmetry_equiv_pos_site_id
 _symmetry_equiv_pos_as_xyz
  1  'x, y, z'
loop_
 _atom_site_type_symbol
 _atom_site_label
 _atom_site_symmetry_multiplicity
 _atom_site_fract_x
 _atom_site_fract_y
 _atom_site_fract_z
 _atom_site_occupancy
  Li  Li0  1  0.34541708  0.08050931  0.37530843  1
  Li  Li1  1  0.52913350  0.74583887  0.98973771  1
  Li  Li2  1  0.97195169  0.49554304  0.86924647  1
  Li  Li3  1  0.23427485  0.53573533  0.25988048  1
  Li  Li4  1  0.04373235  0.03910775  0.03395972  1
  Li  Li5  1  0.91401156  0.27159621  0.59387233  1
  Li  Li6  1  0.71567826  0.50100434  0.27675633  1
  Li  Li7  1  0.49290131  0.61226715  0.55874396  1
  Si  Si8  1  0.21792315  0.98754962  0.80619583  1
  Si  Si9  1  0.71335787  0.95114815  0.30807552  1
  Ge  Ge10  1  0.53037421  0.24048920  0.03430884  1
  Ge  Ge11  1  0.04414776  0.67761498  0.53707898  1
  S  S12  1  0.81267416  0.60369873  0.65775079  1
  S  S13  1  0.20448324  0.76021873  0.94471752  1
  S  S14  1  0.47924909  0.15908579  0.82456709  1
  S  S15  1  0.19435200  0.42211122  0.48735887  1
  S  S16  1  0.68306333  0.20136714  0.40984792  1
  S  S17  1  0.72381380  0.99327221  0.10061824  1
  S  S18  1  0.49779849  0.74429293  0.34069024  1
  S  S19  1  0.72660566  0.49379973  0.04296956  1
  S  S20  1  0.98018059  0.81286990  0.33233560  1
  S  S21  1  0.98019834  0.14478977  0.80930541  1
  S  S22  1  0.28287845  0.24030905  0.15123197  1
  S  S23  1  0.27729738  0.89066796  0.61348430  1
