data_96_contcar
_audit_creation_date              2024-02-16
_audit_creation_method            'Materials Studio'
_symmetry_space_group_name_H-M    'P1'
_symmetry_Int_Tables_number       1
_symmetry_cell_setting            triclinic
loop_
_symmetry_equiv_pos_as_xyz
  x,y,z
_cell_length_a                    14.4107
_cell_length_b                    13.9461
_cell_length_c                    10.3823
_cell_angle_alpha                 88.7152
_cell_angle_beta                  93.5684
_cell_angle_gamma                 92.9226
loop_
_atom_site_label
_atom_site_type_symbol
_atom_site_fract_x
_atom_site_fract_y
_atom_site_fract_z
_atom_site_U_iso_or_equiv
_atom_site_adp_type
_atom_site_occupancy
Li1    Li    0.17271   0.04025   0.37531   0.00000  Uiso   1.00
Li2    Li    0.26457   0.37292   0.98974   0.00000  Uiso   1.00
Li3    Li    0.48598   0.24777   0.86925   0.00000  Uiso   1.00
Li4    Li    0.11714   0.26787   0.25988   0.00000  Uiso   1.00
Li5    Li    0.02187   0.01955   0.03396   0.00000  Uiso   1.00
Li6    Li    0.45701   0.13580   0.59387   0.00000  Uiso   1.00
Li7    Li    0.35784   0.25050   0.27676   0.00000  Uiso   1.00
Li8    Li    0.24645   0.30613   0.55874   0.00000  Uiso   1.00
Si9    Si    0.10896   0.49377   0.80620   0.00000  Uiso   1.00
Si10   Si    0.35668   0.47557   0.30808   0.00000  Uiso   1.00
Ge11   Ge    0.26519   0.62024   0.03431   0.00000  Uiso   1.00
Ge12   Ge    0.02207   0.33881   0.53708   0.00000  Uiso   1.00
S13    S     0.40634   0.30185   0.65775   0.00000  Uiso   1.00
S14    S     0.10224   0.38011   0.94472   0.00000  Uiso   1.00
S15    S     0.23962   0.57954   0.82457   0.00000  Uiso   1.00
S16    S     0.09718   0.21106   0.48736   0.00000  Uiso   1.00
S17    S     0.34153   0.60068   0.40985   0.00000  Uiso   1.00
S18    S     0.36191   0.49664   0.10062   0.00000  Uiso   1.00
S19    S     0.24890   0.37215   0.34069   0.00000  Uiso   1.00
S20    S     0.36330   0.74690   0.04297   0.00000  Uiso   1.00
S21    S     0.49009   0.40643   0.33234   0.00000  Uiso   1.00
S22    S     0.49010   0.57239   0.80931   0.00000  Uiso   1.00
S23    S     0.14144   0.62015   0.15123   0.00000  Uiso   1.00
S24    S     0.13865   0.44533   0.61348   0.00000  Uiso   1.00
Li25   Li    0.67271   0.04025   0.37531   0.00000  Uiso   1.00
Li26   Li    0.76457   0.37292   0.98974   0.00000  Uiso   1.00
Li27   Li    0.98598   0.24777   0.86925   0.00000  Uiso   1.00
Li28   Li    0.61714   0.26787   0.25988   0.00000  Uiso   1.00
Li29   Li    0.52187   0.01955   0.03396   0.00000  Uiso   1.00
Li30   Li    0.95701   0.13580   0.59387   0.00000  Uiso   1.00
Li31   Li    0.85784   0.25050   0.27676   0.00000  Uiso   1.00
Li32   Li    0.74645   0.30613   0.55874   0.00000  Uiso   1.00
Si33   Si    0.60896   0.49377   0.80620   0.00000  Uiso   1.00
Si34   Si    0.85668   0.47557   0.30808   0.00000  Uiso   1.00
Ge35   Ge    0.76519   0.62024   0.03431   0.00000  Uiso   1.00
Ge36   Ge    0.52207   0.33881   0.53708   0.00000  Uiso   1.00
S37    S     0.90634   0.30185   0.65775   0.00000  Uiso   1.00
S38    S     0.60224   0.38011   0.94472   0.00000  Uiso   1.00
S39    S     0.73962   0.57954   0.82457   0.00000  Uiso   1.00
S40    S     0.59718   0.21106   0.48736   0.00000  Uiso   1.00
S41    S     0.84153   0.60068   0.40985   0.00000  Uiso   1.00
S42    S     0.86191   0.49664   0.10062   0.00000  Uiso   1.00
S43    S     0.74890   0.37215   0.34069   0.00000  Uiso   1.00
S44    S     0.86330   0.74690   0.04297   0.00000  Uiso   1.00
S45    S     0.99009   0.40643   0.33234   0.00000  Uiso   1.00
S46    S     0.99010   0.57239   0.80931   0.00000  Uiso   1.00
S47    S     0.64144   0.62015   0.15123   0.00000  Uiso   1.00
S48    S     0.63865   0.44533   0.61348   0.00000  Uiso   1.00
Li49   Li    0.17271   0.54025   0.37531   0.00000  Uiso   1.00
Li50   Li    0.26457   0.87292   0.98974   0.00000  Uiso   1.00
Li51   Li    0.48598   0.74777   0.86925   0.00000  Uiso   1.00
Li52   Li    0.11714   0.76787   0.25988   0.00000  Uiso   1.00
Li53   Li    0.02187   0.51955   0.03396   0.00000  Uiso   1.00
Li54   Li    0.45701   0.63580   0.59387   0.00000  Uiso   1.00
Li55   Li    0.35784   0.75050   0.27676   0.00000  Uiso   1.00
Li56   Li    0.24645   0.80613   0.55874   0.00000  Uiso   1.00
Si57   Si    0.10896   0.99377   0.80620   0.00000  Uiso   1.00
Si58   Si    0.35668   0.97557   0.30808   0.00000  Uiso   1.00
Ge59   Ge    0.26519   1.12024   0.03431   0.00000  Uiso   1.00
Ge60   Ge    0.02207   0.83881   0.53708   0.00000  Uiso   1.00
S61    S     0.40634   0.80185   0.65775   0.00000  Uiso   1.00
S62    S     0.10224   0.88011   0.94472   0.00000  Uiso   1.00
S63    S     0.23962   1.07954   0.82457   0.00000  Uiso   1.00
S64    S     0.09718   0.71106   0.48736   0.00000  Uiso   1.00
S65    S     0.34153   1.10068   0.40985   0.00000  Uiso   1.00
S66    S     0.36191   0.99664   0.10062   0.00000  Uiso   1.00
S67    S     0.24890   0.87215   0.34069   0.00000  Uiso   1.00
S68    S     0.36330   1.24690   0.04297   0.00000  Uiso   1.00
S69    S     0.49009   0.90643   0.33234   0.00000  Uiso   1.00
S70    S     0.49010   1.07239   0.80931   0.00000  Uiso   1.00
S71    S     0.14144   1.12015   0.15123   0.00000  Uiso   1.00
S72    S     0.13865   0.94533   0.61348   0.00000  Uiso   1.00
Li73   Li    0.67271   0.54025   0.37531   0.00000  Uiso   1.00
Li74   Li    0.76457   0.87292   0.98974   0.00000  Uiso   1.00
Li75   Li    0.98598   0.74777   0.86925   0.00000  Uiso   1.00
Li76   Li    0.61714   0.76787   0.25988   0.00000  Uiso   1.00
Li77   Li    0.52187   0.51955   0.03396   0.00000  Uiso   1.00
Li78   Li    0.95701   0.63580   0.59387   0.00000  Uiso   1.00
Li79   Li    0.85784   0.75050   0.27676   0.00000  Uiso   1.00
Li80   Li    0.74645   0.80613   0.55874   0.00000  Uiso   1.00
Si81   Si    0.60896   0.99377   0.80620   0.00000  Uiso   1.00
Si82   Si    0.85668   0.97557   0.30808   0.00000  Uiso   1.00
Ge83   Ge    0.76519   1.12024   0.03431   0.00000  Uiso   1.00
Ge84   Ge    0.52207   0.83881   0.53708   0.00000  Uiso   1.00
S85    S     0.90634   0.80185   0.65775   0.00000  Uiso   1.00
S86    S     0.60224   0.88011   0.94472   0.00000  Uiso   1.00
S87    S     0.73962   1.07954   0.82457   0.00000  Uiso   1.00
S88    S     0.59718   0.71106   0.48736   0.00000  Uiso   1.00
S89    S     0.84153   1.10068   0.40985   0.00000  Uiso   1.00
S90    S     0.86191   0.99664   0.10062   0.00000  Uiso   1.00
S91    S     0.74890   0.87215   0.34069   0.00000  Uiso   1.00
S92    S     0.86330   1.24690   0.04297   0.00000  Uiso   1.00
S93    S     0.99009   0.90643   0.33234   0.00000  Uiso   1.00
S94    S     0.99010   1.07239   0.80931   0.00000  Uiso   1.00
S95    S     0.64144   1.12015   0.15123   0.00000  Uiso   1.00
S96    S     0.63865   0.94533   0.61348   0.00000  Uiso   1.00
loop_
_geom_bond_atom_site_label_1
_geom_bond_atom_site_label_2
_geom_bond_distance
_geom_bond_site_symmetry_2
_ccdc_geom_bond_type
Si9    S14     2.119   .     S
Si9    S15     2.179   .     S
Si9    S46     2.083   1_455 S
Si9    S24     2.200   .     S
Si10   S17     2.088   .     S
Si10   S18     2.173   .     S
Si10   S19     2.103   .     S
Si10   S21     2.193   .     S
Ge11   S15     2.266   1_554 S
Ge11   S18     2.337   .     S
Ge11   S20     2.205   .     S
Ge11   S23     2.219   .     S
Ge12   S37     2.182   1_455 S
Ge12   S16     2.218   .     S
Ge12   S45     2.335   1_455 S
Ge12   S24     2.300   .     S
S13    Ge36    2.182   .     S
S15    Ge11    2.266   1_556 S
S21    Ge36    2.335   .     S
S22    Si33    2.083   .     S
Si33   S38     2.119   .     S
Si33   S39     2.179   .     S
Si33   S48     2.200   .     S
Si34   S41     2.088   .     S
Si34   S42     2.173   .     S
Si34   S43     2.103   .     S
Si34   S45     2.193   .     S
Ge35   S39     2.266   1_554 S
Ge35   S42     2.337   .     S
Ge35   S44     2.205   .     S
Ge35   S47     2.219   .     S
Ge36   S40     2.218   .     S
Ge36   S48     2.300   .     S
S37    Ge12    2.182   1_655 S
S39    Ge35    2.266   1_556 S
S45    Ge12    2.335   1_655 S
S46    Si9     2.083   1_655 S
Si57   S62     2.119   .     S
Si57   S63     2.179   .     S
Si57   S94     2.083   1_455 S
Si57   S72     2.200   .     S
Si58   S65     2.088   .     S
Si58   S66     2.173   .     S
Si58   S67     2.103   .     S
Si58   S69     2.193   .     S
Ge59   S63     2.266   1_554 S
Ge59   S66     2.337   .     S
Ge59   S68     2.205   .     S
Ge59   S71     2.219   .     S
Ge60   S85     2.182   1_455 S
Ge60   S64     2.218   .     S
Ge60   S93     2.335   1_455 S
Ge60   S72     2.300   .     S
S61    Ge84    2.182   .     S
S63    Ge59    2.266   1_556 S
S69    Ge84    2.335   .     S
S70    Si81    2.083   .     S
Si81   S86     2.119   .     S
Si81   S87     2.179   .     S
Si81   S96     2.200   .     S
Si82   S89     2.088   .     S
Si82   S90     2.173   .     S
Si82   S91     2.103   .     S
Si82   S93     2.193   .     S
Ge83   S87     2.266   1_554 S
Ge83   S90     2.337   .     S
Ge83   S92     2.205   .     S
Ge83   S95     2.219   .     S
Ge84   S88     2.218   .     S
Ge84   S96     2.300   .     S
S85    Ge60    2.182   1_655 S
S87    Ge83    2.266   1_556 S
S93    Ge60    2.335   1_655 S
S94    Si57    2.083   1_655 S
