# generated using pymatgen
data_Li2GeS3
_symmetry_space_group_name_H-M   'P 1'
_cell_length_a   13.13080000
_cell_length_b   14.71400000
_cell_length_c   12.17290000
_cell_angle_alpha   77.68570000
_cell_angle_beta   90.09190000
_cell_angle_gamma   116.45750000
_symmetry_Int_Tables_number   1
_chemical_formula_structural   Li2GeS3
_chemical_formula_sum   'Li32 Ge16 S48'
_cell_volume   2045.34990919
_cell_formula_units_Z   16
loop_
 _symmetry_equiv_pos_site_id
 _symmetry_equiv_pos_as_xyz
  1  'x, y, z'
loop_
 _atom_site_type_symbol
 _atom_site_label
 _atom_site_symmetry_multiplicity
 _atom_site_fract_x
 _atom_site_fract_y
 _atom_site_fract_z
 _atom_site_occupancy
  Li  Li0  1  0.09134500  0.07626000  0.88478000  1.0
  Li  Li1  1  0.09134500  0.57626000  0.88478000  1.0
  Li  Li2  1  0.59134500  0.07626000  0.88478000  1.0
  Li  Li3  1  0.59134500  0.57626000  0.88478000  1.0
  Li  Li4  1  0.40865500  0.42374000  0.11522000  1.0
  Li  Li5  1  0.40865500  0.92374000  0.11522000  1.0
  Li  Li6  1  0.90865500  0.42374000  0.11522000  1.0
  Li  Li7  1  0.90865500  0.92374000  0.11522000  1.0
  Li  Li8  1  0.34605000  0.08559500  0.69903000  1.0
  Li  Li9  1  0.34605000  0.58559500  0.69903000  1.0
  Li  Li10  1  0.84605000  0.08559500  0.69903000  1.0
  Li  Li11  1  0.84605000  0.58559500  0.69903000  1.0
  Li  Li12  1  0.15395000  0.41440500  0.30097000  1.0
  Li  Li13  1  0.15395000  0.91440500  0.30097000  1.0
  Li  Li14  1  0.65395000  0.41440500  0.30097000  1.0
  Li  Li15  1  0.65395000  0.91440500  0.30097000  1.0
  Li  Li16  1  0.37616500  0.32773500  0.49487000  1.0
  Li  Li17  1  0.37616500  0.82773500  0.49487000  1.0
  Li  Li18  1  0.87616500  0.32773500  0.49487000  1.0
  Li  Li19  1  0.87616500  0.82773500  0.49487000  1.0
  Li  Li20  1  0.12383500  0.17226500  0.50513000  1.0
  Li  Li21  1  0.12383500  0.67226500  0.50513000  1.0
  Li  Li22  1  0.62383500  0.17226500  0.50513000  1.0
  Li  Li23  1  0.62383500  0.67226500  0.50513000  1.0
  Li  Li24  1  0.12488000  0.32087000  0.96331000  1.0
  Li  Li25  1  0.12488000  0.82087000  0.96331000  1.0
  Li  Li26  1  0.62488000  0.32087000  0.96331000  1.0
  Li  Li27  1  0.62488000  0.82087000  0.96331000  1.0
  Li  Li28  1  0.37512000  0.17913000  0.03669000  1.0
  Li  Li29  1  0.37512000  0.67913000  0.03669000  1.0
  Li  Li30  1  0.87512000  0.17913000  0.03669000  1.0
  Li  Li31  1  0.87512000  0.67913000  0.03669000  1.0
  Ge  Ge32  1  0.37801000  0.31350500  0.80927000  1.0
  Ge  Ge33  1  0.37801000  0.81350500  0.80927000  1.0
  Ge  Ge34  1  0.87801000  0.31350500  0.80927000  1.0
  Ge  Ge35  1  0.87801000  0.81350500  0.80927000  1.0
  Ge  Ge36  1  0.12199000  0.18649500  0.19073000  1.0
  Ge  Ge37  1  0.12199000  0.68649500  0.19073000  1.0
  Ge  Ge38  1  0.62199000  0.18649500  0.19073000  1.0
  Ge  Ge39  1  0.62199000  0.68649500  0.19073000  1.0
  Ge  Ge40  1  0.12325500  0.31013500  0.65185000  1.0
  Ge  Ge41  1  0.12325500  0.81013500  0.65185000  1.0
  Ge  Ge42  1  0.62325500  0.31013500  0.65185000  1.0
  Ge  Ge43  1  0.62325500  0.81013500  0.65185000  1.0
  Ge  Ge44  1  0.37674500  0.18986500  0.34815000  1.0
  Ge  Ge45  1  0.37674500  0.68986500  0.34815000  1.0
  Ge  Ge46  1  0.87674500  0.18986500  0.34815000  1.0
  Ge  Ge47  1  0.87674500  0.68986500  0.34815000  1.0
  S  S48  1  0.24979000  0.38432000  0.78036000  1.0
  S  S49  1  0.24979000  0.88432000  0.78036000  1.0
  S  S50  1  0.74979000  0.38432000  0.78036000  1.0
  S  S51  1  0.74979000  0.88432000  0.78036000  1.0
  S  S52  1  0.25021000  0.11568000  0.21964000  1.0
  S  S53  1  0.25021000  0.61568000  0.21964000  1.0
  S  S54  1  0.75021000  0.11568000  0.21964000  1.0
  S  S55  1  0.75021000  0.61568000  0.21964000  1.0
  S  S56  1  0.29678000  0.14189000  0.86097000  1.0
  S  S57  1  0.29678000  0.64189000  0.86097000  1.0
  S  S58  1  0.79678000  0.14189000  0.86097000  1.0
  S  S59  1  0.79678000  0.64189000  0.86097000  1.0
  S  S60  1  0.20322000  0.35811000  0.13903000  1.0
  S  S61  1  0.20322000  0.85811000  0.13903000  1.0
  S  S62  1  0.70322000  0.35811000  0.13903000  1.0
  S  S63  1  0.70322000  0.85811000  0.13903000  1.0
  S  S64  1  0.02545500  0.12354000  0.05106000  1.0
  S  S65  1  0.02545500  0.62354000  0.05106000  1.0
  S  S66  1  0.52545500  0.12354000  0.05106000  1.0
  S  S67  1  0.52545500  0.62354000  0.05106000  1.0
  S  S68  1  0.47454500  0.37646000  0.94894000  1.0
  S  S69  1  0.47454500  0.87646000  0.94894000  1.0
  S  S70  1  0.97454500  0.37646000  0.94894000  1.0
  S  S71  1  0.97454500  0.87646000  0.94894000  1.0
  S  S72  1  0.04535000  0.13875000  0.70015000  1.0
  S  S73  1  0.04535000  0.63875000  0.70015000  1.0
  S  S74  1  0.54535000  0.13875000  0.70015000  1.0
  S  S75  1  0.54535000  0.63875000  0.70015000  1.0
  S  S76  1  0.45465000  0.36125000  0.29985000  1.0
  S  S77  1  0.45465000  0.86125000  0.29985000  1.0
  S  S78  1  0.95465000  0.36125000  0.29985000  1.0
  S  S79  1  0.95465000  0.86125000  0.29985000  1.0
  S  S80  1  0.00199000  0.38704500  0.64663000  1.0
  S  S81  1  0.00199000  0.88704500  0.64663000  1.0
  S  S82  1  0.50199000  0.38704500  0.64663000  1.0
  S  S83  1  0.50199000  0.88704500  0.64663000  1.0
  S  S84  1  0.49801000  0.11295500  0.35337000  1.0
  S  S85  1  0.49801000  0.61295500  0.35337000  1.0
  S  S86  1  0.99801000  0.11295500  0.35337000  1.0
  S  S87  1  0.99801000  0.61295500  0.35337000  1.0
  S  S88  1  0.28414500  0.13479500  0.51729000  1.0
  S  S89  1  0.28414500  0.63479500  0.51729000  1.0
  S  S90  1  0.78414500  0.13479500  0.51729000  1.0
  S  S91  1  0.78414500  0.63479500  0.51729000  1.0
  S  S92  1  0.21585500  0.36520500  0.48271000  1.0
  S  S93  1  0.21585500  0.86520500  0.48271000  1.0
  S  S94  1  0.71585500  0.36520500  0.48271000  1.0
  S  S95  1  0.71585500  0.86520500  0.48271000  1.0
