data_3_26_sym
_audit_creation_date              2024-04-01
_audit_creation_method            'Materials Studio'
_symmetry_space_group_name_H-M    'PNMA'
_symmetry_Int_Tables_number       62
_symmetry_cell_setting            orthorhombic
loop_
_symmetry_equiv_pos_as_xyz
  x,y,z
  -x+1/2,-y,z+1/2
  -x,y+1/2,-z
  x+1/2,-y+1/2,-z+1/2
  -x,-y,-z
  x+1/2,y,-z+1/2
  x,-y+1/2,z
  -x+1/2,y+1/2,z+1/2
_cell_length_a                    6.1476
_cell_length_b                    12.0630
_cell_length_c                    6.9043
_cell_angle_alpha                 90.0000
_cell_angle_beta                  90.0000
_cell_angle_gamma                 90.0000
loop_
_atom_site_label
_atom_site_type_symbol
_atom_site_fract_x
_atom_site_fract_y
_atom_site_fract_z
_atom_site_U_iso_or_equiv
_atom_site_adp_type
_atom_site_occupancy
Li0    Li   -0.31096   0.41384   0.90310   0.00000  Uiso   1.00
S12    S    -0.29115   0.59564   0.06385   0.00000  Uiso   1.00
Ge8    Ge    0.19969   0.25000   0.08248   0.00000  Uiso   1.00
S20    S    -0.68127   0.25000   0.39959   0.00000  Uiso   1.00
loop_
_geom_bond_atom_site_label_1
_geom_bond_atom_site_label_2
_geom_bond_distance
_geom_bond_site_symmetry_2
_ccdc_geom_bond_type
S12    Ge8     2.192   3     S
Ge8    S12     2.192   3_545 S
Ge8    S12     2.192   5_565 S
Ge8    S20     2.309   1_655 S
Ge8    S20     2.345   4     S
S20    Ge8     2.345   4_455 S
S20    Ge8     2.309   1_455 S
