data_6_33_sym
_audit_creation_date              2024-04-01
_audit_creation_method            'Materials Studio'
_symmetry_space_group_name_H-M    'P-1'
_symmetry_Int_Tables_number       2
_symmetry_cell_setting            triclinic
loop_
_symmetry_equiv_pos_as_xyz
  x,y,z
  -x,-y,-z
_cell_length_a                    6.5654
_cell_length_b                    7.3570
_cell_length_c                    12.1729
_cell_angle_alpha                 77.6857
_cell_angle_beta                  90.0919
_cell_angle_gamma                 116.4575
loop_
_atom_site_label
_atom_site_type_symbol
_atom_site_fract_x
_atom_site_fract_y
_atom_site_fract_z
_atom_site_U_iso_or_equiv
_atom_site_adp_type
_atom_site_occupancy
Li0    Li    0.18269   0.15252  -0.11522   0.00000  Uiso   1.00
Li2    Li    0.69210   0.17119  -0.30097   0.00000  Uiso   1.00
Li4    Li    0.75233   0.65547  -0.50513   0.00000  Uiso   1.00
Li6    Li    0.24976  -0.35826  -0.03669   0.00000  Uiso   1.00
Ge8    Ge    0.75602   0.62701  -0.19073   0.00000  Uiso   1.00
Ge10   Ge    0.24651  -0.37973  -0.34815   0.00000  Uiso   1.00
S12    S     0.49958  -0.23136  -0.21964   0.00000  Uiso   1.00
S14    S     0.59356   0.28378  -0.13903   0.00000  Uiso   1.00
S16    S     0.05091  -0.75292   0.05106   0.00000  Uiso   1.00
S18    S     0.09070  -0.72250  -0.29985   0.00000  Uiso   1.00
S20    S     0.00398  -0.22591  -0.35337   0.00000  Uiso   1.00
S22    S     0.56829   0.26959  -0.48271   0.00000  Uiso   1.00
loop_
_geom_bond_atom_site_label_1
_geom_bond_atom_site_label_2
_geom_bond_distance
_geom_bond_site_symmetry_2
_ccdc_geom_bond_type
Ge8    S12     2.334   1_565 S
Ge8    S14     2.199   .     S
Ge8    S20     2.295   1_665 S
Ge8    S16     2.230   2_655 S
Ge10   S12     2.346   .     S
Ge10   S18     2.196   .     S
Ge10   S20     2.323   .     S
Ge10   S22     2.189   2_654 S
S12    Ge8     2.334   1_545 S
S16    Ge8     2.230   2_655 S
S20    Ge8     2.295   1_445 S
S22    Ge10    2.189   2_654 S
