# generated using pymatgen
data_Li4SiSnS6
_symmetry_space_group_name_H-M   'P 1'
_cell_length_a   10.60625273
_cell_length_b   7.56550791
_cell_length_c   6.42233774
_cell_angle_alpha   90.00000000
_cell_angle_beta   90.00000000
_cell_angle_gamma   79.65434481
_symmetry_Int_Tables_number   1
_chemical_formula_structural   Li4SiSnS6
_chemical_formula_sum   'Li8 Si2 Sn2 S12'
_cell_volume   506.96097080
_cell_formula_units_Z   2
loop_
 _symmetry_equiv_pos_site_id
 _symmetry_equiv_pos_as_xyz
  1  'x, y, z'
loop_
 _atom_site_type_symbol
 _atom_site_label
 _atom_site_symmetry_multiplicity
 _atom_site_fract_x
 _atom_site_fract_y
 _atom_site_fract_z
 _atom_site_occupancy
  Li  Li0  1  0.00627537  0.03458790  0.33800119  1
  Li  Li1  1  0.23633863  0.95799710  0.83800019  1
  Li  Li2  1  0.67987569  0.36382438  0.34679408  1
  Li  Li3  1  0.57306514  0.14734670  0.85051609  1
  Li  Li4  1  0.00648978  0.52318914  0.33968950  1
  Li  Li5  1  0.23612122  0.46939586  0.83968950  1
  Li  Li6  1  0.66954486  0.84523930  0.35051609  1
  Li  Li7  1  0.56273431  0.62876062  0.84679408  1
  Si  Si8  1  0.88953408  0.30720746  0.85970562  1
  Si  Si9  1  0.35307692  0.68537854  0.35970562  1
  Sn  Sn10  1  0.36313160  0.18518074  0.36980560  1
  Sn  Sn11  1  0.87947740  0.80740426  0.86980560  1
  S  S12  1  0.89625840  0.30764389  0.18635731  1
  S  S13  1  0.00192170  0.04777032  0.73685346  1
  S  S14  1  0.56917419  0.13414527  0.22520015  1
  S  S15  1  0.34918129  0.18635372  0.73823678  1
  S  S16  1  0.24068730  0.94481568  0.23685146  1
  S  S17  1  0.70775086  0.35535317  0.72875333  1
  S  S18  1  0.89342971  0.80623028  0.23823578  1
  S  S19  1  0.00339877  0.50669727  0.73563592  1
  S  S20  1  0.53486014  0.63723183  0.22875433  1
  S  S21  1  0.34635260  0.68494111  0.68635831  1
  S  S22  1  0.23921223  0.48588773  0.23563592  1
  S  S23  1  0.67343781  0.85843973  0.72520315  1
