data_Li3PO4_46_contcar
_audit_creation_date              2025-07-02
_audit_creation_method            'Materials Studio'
_symmetry_space_group_name_H-M    'PMN21'
_symmetry_Int_Tables_number       31
_symmetry_cell_setting            orthorhombic
loop_
_symmetry_equiv_pos_as_xyz
  x,y,z
  -x+1/2,-y,z+1/2
  x+1/2,-y,z+1/2
  -x,y,z
_cell_length_a                    6.1543
_cell_length_b                    5.2770
_cell_length_c                    4.8923
_cell_angle_alpha                 90.0000
_cell_angle_beta                  90.0000
_cell_angle_gamma                 90.0000
loop_
_atom_site_label
_atom_site_type_symbol
_atom_site_fract_x
_atom_site_fract_y
_atom_site_fract_z
_atom_site_U_iso_or_equiv
_atom_site_adp_type
_atom_site_occupancy
Li2    Li   -0.24707   1.17339   0.49050   0.00000  Uiso   1.00
O18    O     0.29218   1.18581   0.08805   0.00000  Uiso   1.00
Li0    Li   -0.00000   0.34536   0.99096   0.00000  Uiso   1.00
P12    P    -0.00000   0.67589   0.48199   0.00000  Uiso   1.00
O16    O    -0.50000   0.60444   0.08318   0.00000  Uiso   1.00
O20    O    -0.50000   0.31827   0.66368   0.00000  Uiso   1.00
