data_121_contcar\(2)
_audit_creation_date              2024-02-08
_audit_creation_method            'Materials Studio'
_symmetry_space_group_name_H-M    'P1'
_symmetry_Int_Tables_number       1
_symmetry_cell_setting            triclinic
loop_
_symmetry_equiv_pos_as_xyz
  x,y,z
_cell_length_a                    10.0771
_cell_length_b                    9.9527
_cell_length_c                    13.5579
_cell_angle_alpha                 90.0000
_cell_angle_beta                  49.3059
_cell_angle_gamma                 90.0000
loop_
_atom_site_label
_atom_site_type_symbol
_atom_site_fract_x
_atom_site_fract_y
_atom_site_fract_z
_atom_site_U_iso_or_equiv
_atom_site_adp_type
_atom_site_occupancy
Li1    Li    0.46725   0.64064   0.06682   0.00000  Uiso   1.00
Li2    Li    0.50070   0.25344   0.00762   0.00000  Uiso   1.00
Si3    Si    0.78705   0.53614   0.49824   0.00000  Uiso   1.00
S4     S     0.23286   0.24454   0.02331   0.00000  Uiso   1.00
S5     S     0.96518   0.49850   0.28711   0.00000  Uiso   1.00
S6     S     0.55688   0.57914   0.35699   0.00000  Uiso   1.00
Li7    Li    0.96725   0.14064   0.06682   0.00000  Uiso   1.00
Li8    Li    0.00070   0.75344   0.00762   0.00000  Uiso   1.00
Si9    Si    0.28705   0.03614   0.49824   0.00000  Uiso   1.00
S10    S     0.73286   0.74454   0.02331   0.00000  Uiso   1.00
S11    S     0.46518  -0.00150   0.28711   0.00000  Uiso   1.00
S12    S     0.05688   0.07914   0.35699   0.00000  Uiso   1.00
Li13   Li    0.46725   0.35936   0.31682   0.00000  Uiso   1.00
Li14   Li    0.50070   0.74656   0.25762   0.00000  Uiso   1.00
Si15   Si    0.78705   0.46386   0.24824   0.00000  Uiso   1.00
S16    S     0.23286  -0.24454   0.27331   0.00000  Uiso   1.00
S17    S     0.96518   0.50150   0.03711   0.00000  Uiso   1.00
S18    S     0.55688   0.42086   0.10699   0.00000  Uiso   1.00
Li19   Li    0.96725   0.85936   0.31682   0.00000  Uiso   1.00
Li20   Li    0.00070   0.24656   0.25762   0.00000  Uiso   1.00
Si21   Si    0.28705  -0.03614   0.24824   0.00000  Uiso   1.00
S22    S     0.73286   0.25546   0.27331   0.00000  Uiso   1.00
S23    S     0.46518   0.00150   0.03711   0.00000  Uiso   1.00
S24    S     0.05688  -0.07914   0.10699   0.00000  Uiso   1.00
Li25   Li    0.46725   0.64064   0.56682   0.00000  Uiso   1.00
Li26   Li    0.50070   0.25344   0.50762   0.00000  Uiso   1.00
Si27   Si    0.78705   0.53614   0.99824   0.00000  Uiso   1.00
S28    S     0.23286   0.24454   0.52331   0.00000  Uiso   1.00
S29    S     0.96518   0.49850   0.78711   0.00000  Uiso   1.00
S30    S     0.55688   0.57914   0.85699   0.00000  Uiso   1.00
Li31   Li    0.96725   0.14064   0.56682   0.00000  Uiso   1.00
Li32   Li    0.00070   0.75344   0.50762   0.00000  Uiso   1.00
Si33   Si    0.28705   0.03614   0.99824   0.00000  Uiso   1.00
S34    S     0.73286   0.74454   0.52331   0.00000  Uiso   1.00
S35    S     0.46518  -0.00150   0.78711   0.00000  Uiso   1.00
S36    S     0.05688   0.07914   0.85699   0.00000  Uiso   1.00
Li37   Li    0.46725   0.35936   0.81682   0.00000  Uiso   1.00
Li38   Li    0.50070   0.74656   0.75762   0.00000  Uiso   1.00
Si39   Si    0.78705   0.46386   0.74824   0.00000  Uiso   1.00
S40    S     0.23286  -0.24454   0.77331   0.00000  Uiso   1.00
S41    S     0.96518   0.50150   0.53711   0.00000  Uiso   1.00
S42    S     0.55688   0.42086   0.60699   0.00000  Uiso   1.00
Li43   Li    0.96725   0.85936   0.81682   0.00000  Uiso   1.00
Li44   Li    0.00070   0.24656   0.75762   0.00000  Uiso   1.00
Si45   Si    0.28705  -0.03614   0.74824   0.00000  Uiso   1.00
S46    S     0.73286   0.25546   0.77331   0.00000  Uiso   1.00
S47    S     0.46518   0.00150   0.53711   0.00000  Uiso   1.00
S48    S     0.05688  -0.07914   0.60699   0.00000  Uiso   1.00
loop_
_geom_bond_atom_site_label_1
_geom_bond_atom_site_label_2
_geom_bond_distance
_geom_bond_site_symmetry_2
_ccdc_geom_bond_type
Si3    S5      2.204   .     S
Si3    S42     2.100   .     S
Si3    S41     2.203   .     S
Si3    S34     2.115   .     S
S4     Si33    2.115   1_554 S
S5     Si15    2.203   .     S
S6     Si15    2.100   .     S
Si9    S11     2.204   .     S
Si9    S48     2.100   .     S
Si9    S47     2.203   .     S
Si9    S28     2.115   .     S
S10    Si27    2.115   1_554 S
S11    Si21    2.203   .     S
S12    Si21    2.100   .     S
Si15   S17     2.204   .     S
Si15   S22     2.115   .     S
S16    Si21    2.115   .     S
S17    Si27    2.203   1_554 S
S18    Si27    2.100   1_554 S
Si21   S23     2.204   .     S
S23    Si33    2.203   1_554 S
S24    Si33    2.100   1_554 S
Si27   S29     2.204   .     S
Si27   S18     2.100   1_556 S
Si27   S17     2.203   1_556 S
Si27   S10     2.115   1_556 S
S29    Si39    2.203   .     S
S30    Si39    2.100   .     S
Si33   S35     2.204   .     S
Si33   S24     2.100   1_556 S
Si33   S23     2.203   1_556 S
Si33   S4      2.115   1_556 S
S35    Si45    2.203   .     S
S36    Si45    2.100   .     S
Si39   S41     2.204   .     S
Si39   S46     2.115   .     S
S40    Si45    2.115   .     S
Si45   S47     2.204   .     S
