# generated using pymatgen
data_Li4SiSnS6
_symmetry_space_group_name_H-M   'P 1'
_cell_length_a   10.53580073
_cell_length_b   14.95479656
_cell_length_c   13.28226624
_cell_angle_alpha   90.86387601
_cell_angle_beta   89.67347221
_cell_angle_gamma   95.23238349
_symmetry_Int_Tables_number   1
_chemical_formula_structural   Li4SiSnS6
_chemical_formula_sum   'Li32 Si8 Sn8 S48'
_cell_volume   2083.78687217
_cell_formula_units_Z   8
loop_
 _symmetry_equiv_pos_site_id
 _symmetry_equiv_pos_as_xyz
  1  'x, y, z'
loop_
 _atom_site_type_symbol
 _atom_site_label
 _atom_site_symmetry_multiplicity
 _atom_site_fract_x
 _atom_site_fract_y
 _atom_site_fract_z
 _atom_site_occupancy
  Li  Li0  1  0.50084620  0.07844400  0.10741626  1.0
  Li  Li1  1  0.50084620  0.07844400  0.60741626  1.0
  Li  Li2  1  0.50084620  0.57844399  0.10741626  1.0
  Li  Li3  1  0.50084620  0.57844399  0.60741626  1.0
  Li  Li4  1  0.57753885  0.46074715  0.43176401  1.0
  Li  Li5  1  0.57753885  0.46074715  0.93176401  1.0
  Li  Li6  1  0.57753885  0.96074715  0.43176401  1.0
  Li  Li7  1  0.57753885  0.96074715  0.93176401  1.0
  Li  Li8  1  0.27882875  0.06526688  0.34765822  1.0
  Li  Li9  1  0.27882875  0.06526688  0.84765822  1.0
  Li  Li10  1  0.27882875  0.56526688  0.34765822  1.0
  Li  Li11  1  0.27882875  0.56526688  0.84765822  1.0
  Li  Li12  1  0.79965104  0.47354912  0.19136140  1.0
  Li  Li13  1  0.79965104  0.47354912  0.69136140  1.0
  Li  Li14  1  0.79965104  0.97354912  0.19136139  1.0
  Li  Li15  1  0.79965104  0.97354912  0.69136139  1.0
  Li  Li16  1  0.09974320  0.45481670  0.10081535  1.0
  Li  Li17  1  0.09974320  0.45481670  0.60081535  1.0
  Li  Li18  1  0.09974320  0.95481670  0.10081535  1.0
  Li  Li19  1  0.09974320  0.95481670  0.60081535  1.0
  Li  Li20  1  0.97845664  0.08373008  0.43815816  1.0
  Li  Li21  1  0.97845664  0.08373008  0.93815816  1.0
  Li  Li22  1  0.97845664  0.58373009  0.43815816  1.0
  Li  Li23  1  0.97845664  0.58373009  0.93815816  1.0
  Li  Li24  1  0.10825788  0.22456098  0.18181155  1.0
  Li  Li25  1  0.10825788  0.22456098  0.68181155  1.0
  Li  Li26  1  0.10825788  0.72456098  0.18181155  1.0
  Li  Li27  1  0.10825788  0.72456098  0.68181155  1.0
  Li  Li28  1  0.96974559  0.31405922  0.35719550  1.0
  Li  Li29  1  0.96974559  0.31405922  0.85719550  1.0
  Li  Li30  1  0.96974559  0.81405922  0.35719550  1.0
  Li  Li31  1  0.96974559  0.81405922  0.85719550  1.0
  Si  Si32  1  0.41018551  0.40069443  0.17631217  1.0
  Si  Si33  1  0.41018551  0.40069443  0.67631217  1.0
  Si  Si34  1  0.41018551  0.90069443  0.17631217  1.0
  Si  Si35  1  0.41018551  0.90069443  0.67631216  1.0
  Si  Si36  1  0.66793938  0.13842325  0.36271560  1.0
  Si  Si37  1  0.66793938  0.13842325  0.86271560  1.0
  Si  Si38  1  0.66793938  0.63842325  0.36271560  1.0
  Si  Si39  1  0.66793938  0.63842325  0.86271560  1.0
  Sn  Sn40  1  0.82129726  0.21717528  0.11190978  1.0
  Sn  Sn41  1  0.82129726  0.21717528  0.61190978  1.0
  Sn  Sn42  1  0.82129726  0.71717529  0.11190978  1.0
  Sn  Sn43  1  0.82129726  0.71717529  0.61190978  1.0
  Sn  Sn44  1  0.25663516  0.32185588  0.42737155  1.0
  Sn  Sn45  1  0.25663516  0.32185588  0.92737155  1.0
  Sn  Sn46  1  0.25663516  0.82185587  0.42737155  1.0
  Sn  Sn47  1  0.25663516  0.82185587  0.92737154  1.0
  S  S48  1  0.95834490  0.09779348  0.11812631  1.0
  S  S49  1  0.95834490  0.09779348  0.61812631  1.0
  S  S50  1  0.95834490  0.59779348  0.11812631  1.0
  S  S51  1  0.95834490  0.59779348  0.61812631  1.0
  S  S52  1  0.11961194  0.44136046  0.42088620  1.0
  S  S53  1  0.11961194  0.44136046  0.92088621  1.0
  S  S54  1  0.11961194  0.94136045  0.42088620  1.0
  S  S55  1  0.11961194  0.94136045  0.92088620  1.0
  S  S56  1  0.94533819  0.34598802  0.18150816  1.0
  S  S57  1  0.94533819  0.34598802  0.68150816  1.0
  S  S58  1  0.94533819  0.84598803  0.18150816  1.0
  S  S59  1  0.94533819  0.84598803  0.68150816  1.0
  S  S60  1  0.13278429  0.19299431  0.35749301  1.0
  S  S61  1  0.13278429  0.19299431  0.85749301  1.0
  S  S62  1  0.13278429  0.69299431  0.35749301  1.0
  S  S63  1  0.13278429  0.69299431  0.85749301  1.0
  S  S64  1  0.29967554  0.01062827  0.17495270  1.0
  S  S65  1  0.29967554  0.01062827  0.67495270  1.0
  S  S66  1  0.29967554  0.51062827  0.17495270  1.0
  S  S67  1  0.29967554  0.51062827  0.67495270  1.0
  S  S68  1  0.77834384  0.02834425  0.36381294  1.0
  S  S69  1  0.77834384  0.02834425  0.86381295  1.0
  S  S70  1  0.77834384  0.52834425  0.36381294  1.0
  S  S71  1  0.77834384  0.52834425  0.86381294  1.0
  S  S72  1  0.48795094  0.10869114  0.42834055  1.0
  S  S73  1  0.48795094  0.10869114  0.92834055  1.0
  S  S74  1  0.48795094  0.60869114  0.42834055  1.0
  S  S75  1  0.48795094  0.60869114  0.92834055  1.0
  S  S76  1  0.59019847  0.43060167  0.11082583  1.0
  S  S77  1  0.59019847  0.43060167  0.61082583  1.0
  S  S78  1  0.59019847  0.93060167  0.11082583  1.0
  S  S79  1  0.59019847  0.93060167  0.61082583  1.0
  S  S80  1  0.76378953  0.25828618  0.43856221  1.0
  S  S81  1  0.76378953  0.25828618  0.93856221  1.0
  S  S82  1  0.76378953  0.75828618  0.43856221  1.0
  S  S83  1  0.76378953  0.75828618  0.93856221  1.0
  S  S84  1  0.31413049  0.28103090  0.10056368  1.0
  S  S85  1  0.31413049  0.28103090  0.60056368  1.0
  S  S86  1  0.31413049  0.78103090  0.10056368  1.0
  S  S87  1  0.31413049  0.78103090  0.60056368  1.0
  S  S88  1  0.62666369  0.19065291  0.21360209  1.0
  S  S89  1  0.62666369  0.19065291  0.71360209  1.0
  S  S90  1  0.62666369  0.69065291  0.21360209  1.0
  S  S91  1  0.62666369  0.69065291  0.71360209  1.0
  S  S92  1  0.45116270  0.34886642  0.32539226  1.0
  S  S93  1  0.45116270  0.34886642  0.82539226  1.0
  S  S94  1  0.45116270  0.84886642  0.32539226  1.0
  S  S95  1  0.45116270  0.84886642  0.82539226  1.0
