# generated using pymatgen
data_Li2SiS3
_symmetry_space_group_name_H-M   'P 1'
_cell_length_a   7.64330254
_cell_length_b   6.77893900
_cell_length_c   9.95267657
_cell_angle_alpha   90.03687083
_cell_angle_beta   89.99494344
_cell_angle_gamma   88.43700958
_symmetry_Int_Tables_number   1
_chemical_formula_structural   Li2SiS3
_chemical_formula_sum   'Li8 Si4 S12'
_cell_volume   515.49085203
_cell_formula_units_Z   4
loop_
 _symmetry_equiv_pos_site_id
 _symmetry_equiv_pos_as_xyz
  1  'x, y, z'
loop_
 _atom_site_type_symbol
 _atom_site_label
 _atom_site_symmetry_multiplicity
 _atom_site_fract_x
 _atom_site_fract_y
 _atom_site_fract_z
 _atom_site_occupancy
  Li  Li0  1  0.53319247  0.60118779  0.76334324  1
  Li  Li1  1  0.49994218  0.51589209  0.37701519  1
  Li  Li2  1  0.53229964  0.10062025  0.48206976  1
  Li  Li3  1  -0.00130431  0.51600116  0.37011958  1
  Li  Li4  1  0.49864170  0.01601330  0.87014292  1
  Li  Li5  1  0.03227572  0.60056387  0.98203815  1
  Li  Li6  1  -0.00008405  0.01585856  0.87699390  1
  Li  Li7  1  0.03324003  0.10118645  0.26333366  1
  Si  Si8  1  0.21283731  0.78376893  0.65950272  1
  Si  Si9  1  0.71282150  0.28376323  0.15950727  1
  Si  Si10  1  0.71306081  0.78328263  0.08722985  1
  Si  Si11  1  0.21307321  0.28331972  0.58723760  1
  S  S12  1  0.76690508  0.27943725  0.36799853  1
  S  S13  1  0.03495203  0.53936861  0.62192167  1
  S  S14  1  0.44286991  0.27093960  0.70275698  1
  S  S15  1  0.44336515  0.77076027  0.54445092  1
  S  S16  1  0.53498689  0.03937004  0.12190597  1
  S  S17  1  0.26687684  0.77937764  0.86798916  1
  S  S18  1  0.94334221  0.27076104  0.04447107  1
  S  S19  1  0.94291736  0.77100089  0.20274355  1
  S  S20  1  0.53465839  0.53939184  0.12490165  1
  S  S21  1  0.76736982  0.77955459  0.87890532  1
  S  S22  1  0.26740094  0.27954594  0.37890872  1
  S  S23  1  0.03470216  0.03941730  0.62493461  1
