# generated using pymatgen
data_Li2SiS3
_symmetry_space_group_name_H-M   'P 1'
_cell_length_a   11.68024107
_cell_length_b   6.81182763
_cell_length_c   6.00284435
_cell_angle_alpha   90.00000000
_cell_angle_beta   90.00000000
_cell_angle_gamma   90.13276055
_symmetry_Int_Tables_number   1
_chemical_formula_structural   Li2SiS3
_chemical_formula_sum   'Li8 Si4 S12'
_cell_volume   477.60775801
_cell_formula_units_Z   4
loop_
 _symmetry_equiv_pos_site_id
 _symmetry_equiv_pos_as_xyz
  1  'x, y, z'
loop_
 _atom_site_type_symbol
 _atom_site_label
 _atom_site_symmetry_multiplicity
 _atom_site_fract_x
 _atom_site_fract_y
 _atom_site_fract_z
 _atom_site_occupancy
  Li  Li0  1  0.95810576  0.13880669  0.39989709  1
  Li  Li1  1  0.45810653  0.63880906  0.39989663  1
  Li  Li2  1  0.62920147  0.44849894  0.89989663  1
  Li  Li3  1  0.12920124  0.94849631  0.89989709  1
  Li  Li4  1  0.12686709  0.63796060  0.40224084  1
  Li  Li5  1  0.62686458  0.13796286  0.40224071  1
  Li  Li6  1  0.46044342  0.94934414  0.90224071  1
  Li  Li7  1  0.96044591  0.44934140  0.90224084  1
  Si  Si8  1  0.29287437  0.12883683  0.41557453  1
  Si  Si9  1  0.79287508  0.62883734  0.41557444  1
  Si  Si10  1  0.29443392  0.45846766  0.91557444  1
  Si  Si11  1  0.79443363  0.95846817  0.91557453  1
  S  S12  1  0.29467081  0.15541618  0.04362032  1
  S  S13  1  0.79467150  0.65541670  0.04361929  1
  S  S14  1  0.29263850  0.43188830  0.54362029  1
  S  S15  1  0.79263819  0.93188882  0.54361932  1
  S  S16  1  0.94640870  0.10221954  -0.00105228  1
  S  S17  1  0.44640931  0.60221272  -0.00105360  1
  S  S18  1  0.64089969  0.48509228  0.49894540  1
  S  S19  1  0.14089530  0.98508546  0.49894772  1
  S  S20  1  0.94414979  0.48491352  0.50170306  1
  S  S21  1  0.44414870  0.98491424  0.50170297  1
  S  S22  1  0.64315930  0.10239176  0.00170297  1
  S  S23  1  0.14316021  0.60239048  0.00170306  1
