# generated using pymatgen
data_Li2GeS3
_symmetry_space_group_name_H-M   'P 1'
_cell_length_a   11.85070000
_cell_length_b   13.70400000
_cell_length_c   12.40960000
_cell_angle_alpha   90.00000000
_cell_angle_beta   90.00000000
_cell_angle_gamma   90.00000000
_symmetry_Int_Tables_number   1
_chemical_formula_structural   Li2GeS3
_chemical_formula_sum   'Li32 Ge16 S48'
_cell_volume   2015.34376985
_cell_formula_units_Z   16
loop_
 _symmetry_equiv_pos_site_id
 _symmetry_equiv_pos_as_xyz
  1  'x, y, z'
loop_
 _atom_site_type_symbol
 _atom_site_label
 _atom_site_symmetry_multiplicity
 _atom_site_fract_x
 _atom_site_fract_y
 _atom_site_fract_z
 _atom_site_occupancy
  Li  Li0  1  0.83309000  0.32685000  0.10040000  1.0
  Li  Li1  1  0.83309000  0.32685000  0.60040000  1.0
  Li  Li2  1  0.83309000  0.82685000  0.10040000  1.0
  Li  Li3  1  0.83309000  0.82685000  0.60040000  1.0
  Li  Li4  1  0.16691000  0.17315000  0.35040000  1.0
  Li  Li5  1  0.16691000  0.17315000  0.85040000  1.0
  Li  Li6  1  0.16691000  0.67315000  0.35040000  1.0
  Li  Li7  1  0.16691000  0.67315000  0.85040000  1.0
  Li  Li8  1  0.83309000  0.17315000  0.35040000  1.0
  Li  Li9  1  0.83309000  0.17315000  0.85040000  1.0
  Li  Li10  1  0.83309000  0.67315000  0.35040000  1.0
  Li  Li11  1  0.83309000  0.67315000  0.85040000  1.0
  Li  Li12  1  0.16691000  0.32685000  0.10040000  1.0
  Li  Li13  1  0.16691000  0.32685000  0.60040000  1.0
  Li  Li14  1  0.16691000  0.82685000  0.10040000  1.0
  Li  Li15  1  0.16691000  0.82685000  0.60040000  1.0
  Li  Li16  1  0.33309000  0.07685000  0.10040000  1.0
  Li  Li17  1  0.33309000  0.07685000  0.60040000  1.0
  Li  Li18  1  0.33309000  0.57685000  0.10040000  1.0
  Li  Li19  1  0.33309000  0.57685000  0.60040000  1.0
  Li  Li20  1  0.66691000  0.42315000  0.35040000  1.0
  Li  Li21  1  0.66691000  0.42315000  0.85040000  1.0
  Li  Li22  1  0.66691000  0.92315000  0.35040000  1.0
  Li  Li23  1  0.66691000  0.92315000  0.85040000  1.0
  Li  Li24  1  0.33309000  0.42315000  0.35040000  1.0
  Li  Li25  1  0.33309000  0.42315000  0.85040000  1.0
  Li  Li26  1  0.33309000  0.92315000  0.35040000  1.0
  Li  Li27  1  0.33309000  0.92315000  0.85040000  1.0
  Li  Li28  1  0.66691000  0.07685000  0.10040000  1.0
  Li  Li29  1  0.66691000  0.07685000  0.60040000  1.0
  Li  Li30  1  0.66691000  0.57685000  0.10040000  1.0
  Li  Li31  1  0.66691000  0.57685000  0.60040000  1.0
  Ge  Ge32  1  0.00000000  0.08385500  0.10931000  1.0
  Ge  Ge33  1  0.00000000  0.08385500  0.60931000  1.0
  Ge  Ge34  1  0.00000000  0.58385500  0.10931000  1.0
  Ge  Ge35  1  0.00000000  0.58385500  0.60931000  1.0
  Ge  Ge36  1  0.00000000  0.41614500  0.35931000  1.0
  Ge  Ge37  1  0.00000000  0.41614500  0.85931000  1.0
  Ge  Ge38  1  0.00000000  0.91614500  0.35931000  1.0
  Ge  Ge39  1  0.00000000  0.91614500  0.85931000  1.0
  Ge  Ge40  1  0.50000000  0.33385500  0.10931000  1.0
  Ge  Ge41  1  0.50000000  0.33385500  0.60931000  1.0
  Ge  Ge42  1  0.50000000  0.83385500  0.10931000  1.0
  Ge  Ge43  1  0.50000000  0.83385500  0.60931000  1.0
  Ge  Ge44  1  0.50000000  0.16614500  0.35931000  1.0
  Ge  Ge45  1  0.50000000  0.16614500  0.85931000  1.0
  Ge  Ge46  1  0.50000000  0.66614500  0.35931000  1.0
  Ge  Ge47  1  0.50000000  0.66614500  0.85931000  1.0
  S  S48  1  0.84266000  0.15648000  0.15612500  1.0
  S  S49  1  0.84266000  0.15648000  0.65612500  1.0
  S  S50  1  0.84266000  0.65648000  0.15612500  1.0
  S  S51  1  0.84266000  0.65648000  0.65612500  1.0
  S  S52  1  0.15734000  0.34352000  0.40612500  1.0
  S  S53  1  0.15734000  0.34352000  0.90612500  1.0
  S  S54  1  0.15734000  0.84352000  0.40612500  1.0
  S  S55  1  0.15734000  0.84352000  0.90612500  1.0
  S  S56  1  0.84266000  0.34352000  0.40612500  1.0
  S  S57  1  0.84266000  0.34352000  0.90612500  1.0
  S  S58  1  0.84266000  0.84352000  0.40612500  1.0
  S  S59  1  0.84266000  0.84352000  0.90612500  1.0
  S  S60  1  0.15734000  0.15648000  0.15612500  1.0
  S  S61  1  0.15734000  0.15648000  0.65612500  1.0
  S  S62  1  0.15734000  0.65648000  0.15612500  1.0
  S  S63  1  0.15734000  0.65648000  0.65612500  1.0
  S  S64  1  0.34266000  0.40648000  0.15612500  1.0
  S  S65  1  0.34266000  0.40648000  0.65612500  1.0
  S  S66  1  0.34266000  0.90648000  0.15612500  1.0
  S  S67  1  0.34266000  0.90648000  0.65612500  1.0
  S  S68  1  0.65734000  0.09352000  0.40612500  1.0
  S  S69  1  0.65734000  0.09352000  0.90612500  1.0
  S  S70  1  0.65734000  0.59352000  0.40612500  1.0
  S  S71  1  0.65734000  0.59352000  0.90612500  1.0
  S  S72  1  0.34266000  0.09352000  0.40612500  1.0
  S  S73  1  0.34266000  0.09352000  0.90612500  1.0
  S  S74  1  0.34266000  0.59352000  0.40612500  1.0
  S  S75  1  0.34266000  0.59352000  0.90612500  1.0
  S  S76  1  0.65734000  0.40648000  0.15612500  1.0
  S  S77  1  0.65734000  0.40648000  0.65612500  1.0
  S  S78  1  0.65734000  0.90648000  0.15612500  1.0
  S  S79  1  0.65734000  0.90648000  0.65612500  1.0
  S  S80  1  0.00000000  0.07575500  0.42006500  1.0
  S  S81  1  0.00000000  0.07575500  0.92006500  1.0
  S  S82  1  0.00000000  0.57575500  0.42006500  1.0
  S  S83  1  0.00000000  0.57575500  0.92006500  1.0
  S  S84  1  0.00000000  0.42424500  0.17006500  1.0
  S  S85  1  0.00000000  0.42424500  0.67006500  1.0
  S  S86  1  0.00000000  0.92424500  0.17006500  1.0
  S  S87  1  0.00000000  0.92424500  0.67006500  1.0
  S  S88  1  0.50000000  0.32575500  0.42006500  1.0
  S  S89  1  0.50000000  0.32575500  0.92006500  1.0
  S  S90  1  0.50000000  0.82575500  0.42006500  1.0
  S  S91  1  0.50000000  0.82575500  0.92006500  1.0
  S  S92  1  0.50000000  0.17424500  0.17006500  1.0
  S  S93  1  0.50000000  0.17424500  0.67006500  1.0
  S  S94  1  0.50000000  0.67424500  0.17006500  1.0
  S  S95  1  0.50000000  0.67424500  0.67006500  1.0
