data_edge\(2)
_audit_creation_date              2024-02-16
_audit_creation_method            'Materials Studio'
_symmetry_space_group_name_H-M    'P1'
_symmetry_Int_Tables_number       1
_symmetry_cell_setting            triclinic
loop_
_symmetry_equiv_pos_as_xyz
  x,y,z
_cell_length_a                    11.4016
_cell_length_b                    13.3362
_cell_length_c                    13.1656
_cell_angle_alpha                 90.0000
_cell_angle_beta                  90.0000
_cell_angle_gamma                 90.0039
loop_
_atom_site_label
_atom_site_type_symbol
_atom_site_fract_x
_atom_site_fract_y
_atom_site_fract_z
_atom_site_U_iso_or_equiv
_atom_site_adp_type
_atom_site_occupancy
Li1    Li    0.11420   0.08381   0.48461   0.00000  Uiso   1.00
Li2    Li    0.45250   0.08072   0.33830   0.00000  Uiso   1.00
Li3    Li    0.90543   0.45458   0.23461   0.00000  Uiso   1.00
Li4    Li    0.41681   0.22319   0.10061   0.00000  Uiso   1.00
Li5    Li    0.01223   0.16631   0.27789   0.00000  Uiso   1.00
Li6    Li    0.60282   0.31520   0.35061   0.00000  Uiso   1.00
Li7    Li    0.56712   0.45768   0.08830   0.00000  Uiso   1.00
Li8    Li    0.00740   0.37209   0.02789   0.00000  Uiso   1.00
Si9    Si    0.75399   0.22851   0.11171   0.00000  Uiso   1.00
Si10   Si    0.25096   0.47609   0.21272   0.00000  Uiso   1.00
Si11   Si    0.26563   0.30989   0.36171   0.00000  Uiso   1.00
Si12   Si    0.76867   0.06230  -0.03728   0.00000  Uiso   1.00
S13    S     0.76136   0.22488  -0.05445   0.00000  Uiso   1.00
S14    S     0.91027   0.28754   0.17019   0.00000  Uiso   1.00
S15    S     0.25827   0.31351   0.19555   0.00000  Uiso   1.00
S16    S     0.41981   0.24500   0.41716   0.00000  Uiso   1.00
S17    S     0.59981   0.29339   0.16716   0.00000  Uiso   1.00
S18    S     0.93033   0.00881  -0.09232   0.00000  Uiso   1.00
S19    S     0.10935   0.25085   0.42019   0.00000  Uiso   1.00
S20    S     0.40075   0.54997   0.15907   0.00000  Uiso   1.00
S21    S     0.75700   0.06319   0.12996   0.00000  Uiso   1.00
S22    S     0.08930   0.52958   0.15768   0.00000  Uiso   1.00
S23    S     0.26262   0.47521   0.37996   0.00000  Uiso   1.00
S24    S     0.61887  -0.01157  -0.09093   0.00000  Uiso   1.00
Li25   Li    0.11420   0.58381   0.48461   0.00000  Uiso   1.00
Li26   Li    0.45250   0.58072   0.33830   0.00000  Uiso   1.00
Li27   Li    0.90543   0.95458   0.23461   0.00000  Uiso   1.00
Li28   Li    0.41681   0.72319   0.10061   0.00000  Uiso   1.00
Li29   Li    0.01223   0.66631   0.27789   0.00000  Uiso   1.00
Li30   Li    0.60282   0.81520   0.35061   0.00000  Uiso   1.00
Li31   Li    0.56712   0.95768   0.08830   0.00000  Uiso   1.00
Li32   Li    0.00740   0.87209   0.02789   0.00000  Uiso   1.00
Si33   Si    0.75399   0.72851   0.11171   0.00000  Uiso   1.00
Si34   Si    0.25096   0.97609   0.21272   0.00000  Uiso   1.00
Si35   Si    0.26563   0.80989   0.36171   0.00000  Uiso   1.00
Si36   Si    0.76867   0.56230  -0.03728   0.00000  Uiso   1.00
S37    S     0.76136   0.72488  -0.05445   0.00000  Uiso   1.00
S38    S     0.91027   0.78754   0.17019   0.00000  Uiso   1.00
S39    S     0.25827   0.81351   0.19555   0.00000  Uiso   1.00
S40    S     0.41981   0.74500   0.41716   0.00000  Uiso   1.00
S41    S     0.59981   0.79339   0.16716   0.00000  Uiso   1.00
S42    S     0.93033   0.50881  -0.09232   0.00000  Uiso   1.00
S43    S     0.10935   0.75085   0.42019   0.00000  Uiso   1.00
S44    S     0.40075   1.04997   0.15907   0.00000  Uiso   1.00
S45    S     0.75700   0.56319   0.12996   0.00000  Uiso   1.00
S46    S     0.08930   1.02958   0.15768   0.00000  Uiso   1.00
S47    S     0.26262   0.97521   0.37996   0.00000  Uiso   1.00
S48    S     0.61887   0.48843  -0.09093   0.00000  Uiso   1.00
Li49   Li    0.11420   0.08381   0.98461   0.00000  Uiso   1.00
Li50   Li    0.45250   0.08072   0.83830   0.00000  Uiso   1.00
Li51   Li    0.90543   0.45458   0.73461   0.00000  Uiso   1.00
Li52   Li    0.41681   0.22319   0.60061   0.00000  Uiso   1.00
Li53   Li    0.01223   0.16631   0.77789   0.00000  Uiso   1.00
Li54   Li    0.60282   0.31520   0.85061   0.00000  Uiso   1.00
Li55   Li    0.56712   0.45768   0.58830   0.00000  Uiso   1.00
Li56   Li    0.00740   0.37209   0.52789   0.00000  Uiso   1.00
Si57   Si    0.75399   0.22851   0.61171   0.00000  Uiso   1.00
Si58   Si    0.25096   0.47609   0.71272   0.00000  Uiso   1.00
Si59   Si    0.26563   0.30989   0.86171   0.00000  Uiso   1.00
Si60   Si    0.76867   0.06230   0.46272   0.00000  Uiso   1.00
S61    S     0.76136   0.22488   0.44555   0.00000  Uiso   1.00
S62    S     0.91027   0.28754   0.67019   0.00000  Uiso   1.00
S63    S     0.25827   0.31351   0.69555   0.00000  Uiso   1.00
S64    S     0.41981   0.24500   0.91716   0.00000  Uiso   1.00
S65    S     0.59981   0.29339   0.66716   0.00000  Uiso   1.00
S66    S     0.93033   0.00881   0.40768   0.00000  Uiso   1.00
S67    S     0.10935   0.25085   0.92019   0.00000  Uiso   1.00
S68    S     0.40075   0.54997   0.65907   0.00000  Uiso   1.00
S69    S     0.75700   0.06319   0.62996   0.00000  Uiso   1.00
S70    S     0.08930   0.52958   0.65768   0.00000  Uiso   1.00
S71    S     0.26262   0.47521   0.87996   0.00000  Uiso   1.00
S72    S     0.61887  -0.01157   0.40907   0.00000  Uiso   1.00
Li73   Li    0.11420   0.58381   0.98461   0.00000  Uiso   1.00
Li74   Li    0.45250   0.58072   0.83830   0.00000  Uiso   1.00
Li75   Li    0.90543   0.95458   0.73461   0.00000  Uiso   1.00
Li76   Li    0.41681   0.72319   0.60061   0.00000  Uiso   1.00
Li77   Li    0.01223   0.66631   0.77789   0.00000  Uiso   1.00
Li78   Li    0.60282   0.81520   0.85061   0.00000  Uiso   1.00
Li79   Li    0.56712   0.95768   0.58830   0.00000  Uiso   1.00
Li80   Li    0.00740   0.87209   0.52789   0.00000  Uiso   1.00
Si81   Si    0.75399   0.72851   0.61171   0.00000  Uiso   1.00
Si82   Si    0.25096   0.97609   0.71272   0.00000  Uiso   1.00
Si83   Si    0.26563   0.80989   0.86171   0.00000  Uiso   1.00
Si84   Si    0.76867   0.56230   0.46272   0.00000  Uiso   1.00
S85    S     0.76136   0.72488   0.44555   0.00000  Uiso   1.00
S86    S     0.91027   0.78754   0.67019   0.00000  Uiso   1.00
S87    S     0.25827   0.81351   0.69555   0.00000  Uiso   1.00
S88    S     0.41981   0.74500   0.91716   0.00000  Uiso   1.00
S89    S     0.59981   0.79339   0.66716   0.00000  Uiso   1.00
S90    S     0.93033   0.50881   0.40768   0.00000  Uiso   1.00
S91    S     0.10935   0.75085   0.92019   0.00000  Uiso   1.00
S92    S     0.40075   1.04997   0.65907   0.00000  Uiso   1.00
S93    S     0.75700   0.56319   0.62996   0.00000  Uiso   1.00
S94    S     0.08930   1.02958   0.65768   0.00000  Uiso   1.00
S95    S     0.26262   0.97521   0.87996   0.00000  Uiso   1.00
S96    S     0.61887   0.48843   0.40907   0.00000  Uiso   1.00
loop_
_geom_bond_atom_site_label_1
_geom_bond_atom_site_label_2
_geom_bond_distance
_geom_bond_site_symmetry_2
_ccdc_geom_bond_type
Si9    S13     2.190   .     S
Si9    S14     2.095   .     S
Si9    S17     2.091   .     S
Si9    S21     2.218   .     S
Si10   S15     2.182   .     S
Si10   S20     2.094   .     S
Si10   S22     2.105   .     S
Si10   S23     2.206   .     S
Si11   S15     2.190   .     S
Si11   S16     2.091   .     S
Si11   S19     2.095   .     S
Si11   S23     2.218   .     S
Si12   S13     2.182   .     S
Si12   S18     2.105   .     S
Si12   S21     2.206   .     S
Si12   S24     2.094   .     S
Si33   S37     2.190   .     S
Si33   S38     2.095   .     S
Si33   S41     2.091   .     S
Si33   S45     2.218   .     S
Si34   S39     2.182   .     S
Si34   S44     2.094   .     S
Si34   S46     2.105   .     S
Si34   S47     2.206   .     S
Si35   S39     2.190   .     S
Si35   S40     2.091   .     S
Si35   S43     2.095   .     S
Si35   S47     2.218   .     S
Si36   S37     2.182   .     S
Si36   S42     2.105   .     S
Si36   S45     2.206   .     S
Si36   S48     2.094   .     S
Si57   S61     2.190   .     S
Si57   S62     2.095   .     S
Si57   S65     2.091   .     S
Si57   S69     2.218   .     S
Si58   S63     2.182   .     S
Si58   S68     2.094   .     S
Si58   S70     2.105   .     S
Si58   S71     2.206   .     S
Si59   S63     2.190   .     S
Si59   S64     2.091   .     S
Si59   S67     2.095   .     S
Si59   S71     2.218   .     S
Si60   S61     2.182   .     S
Si60   S66     2.105   .     S
Si60   S69     2.206   .     S
Si60   S72     2.094   .     S
Si81   S85     2.190   .     S
Si81   S86     2.095   .     S
Si81   S89     2.091   .     S
Si81   S93     2.218   .     S
Si82   S87     2.182   .     S
Si82   S92     2.094   .     S
Si82   S94     2.105   .     S
Si82   S95     2.206   .     S
Si83   S87     2.190   .     S
Si83   S88     2.091   .     S
Si83   S91     2.095   .     S
Si83   S95     2.218   .     S
Si84   S85     2.182   .     S
Si84   S90     2.105   .     S
Si84   S93     2.206   .     S
Si84   S96     2.094   .     S
