# generated using pymatgen
data_Li2GeS3
_symmetry_space_group_name_H-M   'P 1'
_cell_length_a   13.53300000
_cell_length_b   12.08350000
_cell_length_c   13.25520000
_cell_angle_alpha   90.00000000
_cell_angle_beta   88.21880000
_cell_angle_gamma   90.00000000
_symmetry_Int_Tables_number   1
_chemical_formula_structural   Li2GeS3
_chemical_formula_sum   'Li32 Ge16 S48'
_cell_volume   2166.52256676
_cell_formula_units_Z   16
loop_
 _symmetry_equiv_pos_site_id
 _symmetry_equiv_pos_as_xyz
  1  'x, y, z'
loop_
 _atom_site_type_symbol
 _atom_site_label
 _atom_site_symmetry_multiplicity
 _atom_site_fract_x
 _atom_site_fract_y
 _atom_site_fract_z
 _atom_site_occupancy
  Li  Li0  1  0.17590000  0.33943000  0.15950000  1.0
  Li  Li1  1  0.17590000  0.33943000  0.65950000  1.0
  Li  Li2  1  0.67590000  0.33943000  0.15950000  1.0
  Li  Li3  1  0.67590000  0.33943000  0.65950000  1.0
  Li  Li4  1  0.32410000  0.33943000  0.34050000  1.0
  Li  Li5  1  0.32410000  0.33943000  0.84050000  1.0
  Li  Li6  1  0.82410000  0.33943000  0.34050000  1.0
  Li  Li7  1  0.82410000  0.33943000  0.84050000  1.0
  Li  Li8  1  0.32410000  0.66057000  0.34050000  1.0
  Li  Li9  1  0.32410000  0.66057000  0.84050000  1.0
  Li  Li10  1  0.82410000  0.66057000  0.34050000  1.0
  Li  Li11  1  0.82410000  0.66057000  0.84050000  1.0
  Li  Li12  1  0.17590000  0.66057000  0.15950000  1.0
  Li  Li13  1  0.17590000  0.66057000  0.65950000  1.0
  Li  Li14  1  0.67590000  0.66057000  0.15950000  1.0
  Li  Li15  1  0.67590000  0.66057000  0.65950000  1.0
  Li  Li16  1  0.42590000  0.83943000  0.15950000  1.0
  Li  Li17  1  0.42590000  0.83943000  0.65950000  1.0
  Li  Li18  1  0.92590000  0.83943000  0.15950000  1.0
  Li  Li19  1  0.92590000  0.83943000  0.65950000  1.0
  Li  Li20  1  0.07410000  0.83943000  0.34050000  1.0
  Li  Li21  1  0.07410000  0.83943000  0.84050000  1.0
  Li  Li22  1  0.57410000  0.83943000  0.34050000  1.0
  Li  Li23  1  0.57410000  0.83943000  0.84050000  1.0
  Li  Li24  1  0.07410000  0.16057000  0.34050000  1.0
  Li  Li25  1  0.07410000  0.16057000  0.84050000  1.0
  Li  Li26  1  0.57410000  0.16057000  0.34050000  1.0
  Li  Li27  1  0.57410000  0.16057000  0.84050000  1.0
  Li  Li28  1  0.42590000  0.16057000  0.15950000  1.0
  Li  Li29  1  0.42590000  0.16057000  0.65950000  1.0
  Li  Li30  1  0.92590000  0.16057000  0.15950000  1.0
  Li  Li31  1  0.92590000  0.16057000  0.65950000  1.0
  Ge  Ge32  1  0.41744500  0.50000000  0.09064000  1.0
  Ge  Ge33  1  0.41744500  0.50000000  0.59064000  1.0
  Ge  Ge34  1  0.91744500  0.50000000  0.09064000  1.0
  Ge  Ge35  1  0.91744500  0.50000000  0.59064000  1.0
  Ge  Ge36  1  0.08255500  0.50000000  0.40936000  1.0
  Ge  Ge37  1  0.08255500  0.50000000  0.90936000  1.0
  Ge  Ge38  1  0.58255500  0.50000000  0.40936000  1.0
  Ge  Ge39  1  0.58255500  0.50000000  0.90936000  1.0
  Ge  Ge40  1  0.16744500  0.00000000  0.09064000  1.0
  Ge  Ge41  1  0.16744500  0.00000000  0.59064000  1.0
  Ge  Ge42  1  0.66744500  0.00000000  0.09064000  1.0
  Ge  Ge43  1  0.66744500  0.00000000  0.59064000  1.0
  Ge  Ge44  1  0.33255500  0.00000000  0.40936000  1.0
  Ge  Ge45  1  0.33255500  0.00000000  0.90936000  1.0
  Ge  Ge46  1  0.83255500  0.00000000  0.40936000  1.0
  Ge  Ge47  1  0.83255500  0.00000000  0.90936000  1.0
  S  S48  1  0.35581000  0.34633000  0.15319500  1.0
  S  S49  1  0.35581000  0.34633000  0.65319500  1.0
  S  S50  1  0.85581000  0.34633000  0.15319500  1.0
  S  S51  1  0.85581000  0.34633000  0.65319500  1.0
  S  S52  1  0.14419000  0.34633000  0.34680500  1.0
  S  S53  1  0.14419000  0.34633000  0.84680500  1.0
  S  S54  1  0.64419000  0.34633000  0.34680500  1.0
  S  S55  1  0.64419000  0.34633000  0.84680500  1.0
  S  S56  1  0.14419000  0.65367000  0.34680500  1.0
  S  S57  1  0.14419000  0.65367000  0.84680500  1.0
  S  S58  1  0.64419000  0.65367000  0.34680500  1.0
  S  S59  1  0.64419000  0.65367000  0.84680500  1.0
  S  S60  1  0.35581000  0.65367000  0.15319500  1.0
  S  S61  1  0.35581000  0.65367000  0.65319500  1.0
  S  S62  1  0.85581000  0.65367000  0.15319500  1.0
  S  S63  1  0.85581000  0.65367000  0.65319500  1.0
  S  S64  1  0.10581000  0.84633000  0.15319500  1.0
  S  S65  1  0.10581000  0.84633000  0.65319500  1.0
  S  S66  1  0.60581000  0.84633000  0.15319500  1.0
  S  S67  1  0.60581000  0.84633000  0.65319500  1.0
  S  S68  1  0.39419000  0.84633000  0.34680500  1.0
  S  S69  1  0.39419000  0.84633000  0.84680500  1.0
  S  S70  1  0.89419000  0.84633000  0.34680500  1.0
  S  S71  1  0.89419000  0.84633000  0.84680500  1.0
  S  S72  1  0.39419000  0.15367000  0.34680500  1.0
  S  S73  1  0.39419000  0.15367000  0.84680500  1.0
  S  S74  1  0.89419000  0.15367000  0.34680500  1.0
  S  S75  1  0.89419000  0.15367000  0.84680500  1.0
  S  S76  1  0.10581000  0.15367000  0.15319500  1.0
  S  S77  1  0.10581000  0.15367000  0.65319500  1.0
  S  S78  1  0.60581000  0.15367000  0.15319500  1.0
  S  S79  1  0.60581000  0.15367000  0.65319500  1.0
  S  S80  1  0.08930500  0.50000000  0.08427000  1.0
  S  S81  1  0.08930500  0.50000000  0.58427000  1.0
  S  S82  1  0.58930500  0.50000000  0.08427000  1.0
  S  S83  1  0.58930500  0.50000000  0.58427000  1.0
  S  S84  1  0.41069500  0.50000000  0.41573000  1.0
  S  S85  1  0.41069500  0.50000000  0.91573000  1.0
  S  S86  1  0.91069500  0.50000000  0.41573000  1.0
  S  S87  1  0.91069500  0.50000000  0.91573000  1.0
  S  S88  1  0.33930500  0.00000000  0.08427000  1.0
  S  S89  1  0.33930500  0.00000000  0.58427000  1.0
  S  S90  1  0.83930500  0.00000000  0.08427000  1.0
  S  S91  1  0.83930500  0.00000000  0.58427000  1.0
  S  S92  1  0.16069500  0.00000000  0.41573000  1.0
  S  S93  1  0.16069500  0.00000000  0.91573000  1.0
  S  S94  1  0.66069500  0.00000000  0.41573000  1.0
  S  S95  1  0.66069500  0.00000000  0.91573000  1.0
