# generated using pymatgen
data_Li4SiSnS6
_symmetry_space_group_name_H-M   'P 1'
_cell_length_a   7.32971819
_cell_length_b   9.92584997
_cell_length_c   6.95875947
_cell_angle_alpha   88.69039558
_cell_angle_beta   88.61243679
_cell_angle_gamma   85.74520619
_symmetry_Int_Tables_number   1
_chemical_formula_structural   Li4SiSnS6
_chemical_formula_sum   'Li8 Si2 Sn2 S12'
_cell_volume   504.61941964
_cell_formula_units_Z   2
loop_
 _symmetry_equiv_pos_site_id
 _symmetry_equiv_pos_as_xyz
  1  'x, y, z'
loop_
 _atom_site_type_symbol
 _atom_site_label
 _atom_site_symmetry_multiplicity
 _atom_site_fract_x
 _atom_site_fract_y
 _atom_site_fract_z
 _atom_site_occupancy
  Li  Li0  1  0.64051501  0.44767499  0.59878179  1
  Li  Li1  1  0.14051401  0.94767399  0.09878179  1
  Li  Li2  1  0.58513310  0.92312780  0.29093675  1
  Li  Li3  1  0.08513310  0.42312680  0.79093575  1
  Li  Li4  1  0.21507507  0.75386821  0.60880069  1
  Li  Li5  1  0.71507607  0.25386821  0.10880169  1
  Li  Li6  1  0.90259764  0.61985216  0.28136440  1
  Li  Li7  1  0.40259664  0.11985216  0.78136340  1
  Si  Si8  1  0.42238916  0.60040224  0.13605587  1
  Si  Si9  1  0.92239016  0.10040224  0.63605587  1
  Sn  Sn10  1  0.25876016  0.27298680  0.31749444  1
  Sn  Sn11  1  0.75876016  0.77298680  0.81749344  1
  S  S12  1  0.45144948  0.12291924  0.12654610  1
  S  S13  1  0.95144848  0.62292024  0.62654610  1
  S  S14  1  0.85130346  0.83275137  0.12403847  1
  S  S15  1  0.35130246  0.33275137  0.62403847  1
  S  S16  1  0.97033275  0.15092046  0.32862789  1
  S  S17  1  0.47033275  0.65092046  0.82862689  1
  S  S18  1  0.17582087  0.48322581  0.12269301  1
  S  S19  1  0.67582187  -0.01677419  0.62269301  1
  S  S20  1  0.34182805  0.77544790  0.28732631  1
  S  S21  1  0.84182905  0.27544790  0.78732531  1
  S  S22  1  0.64694225  0.47896803  0.23948128  1
  S  S23  1  0.14694125  0.97896903  0.73948128  1
