# generated using pymatgen
data_Li4SiGeS6
_symmetry_space_group_name_H-M   'P 1'
_cell_length_a   6.81369164
_cell_length_b   7.01567731
_cell_length_c   10.17673377
_cell_angle_alpha   84.79088552
_cell_angle_beta   90.00000000
_cell_angle_gamma   90.00000000
_symmetry_Int_Tables_number   1
_chemical_formula_structural   Li4SiGeS6
_chemical_formula_sum   'Li8 Si2 Ge2 S12'
_cell_volume   484.46580598
_cell_formula_units_Z   2
loop_
 _symmetry_equiv_pos_site_id
 _symmetry_equiv_pos_as_xyz
  1  'x, y, z'
loop_
 _atom_site_type_symbol
 _atom_site_label
 _atom_site_symmetry_multiplicity
 _atom_site_fract_x
 _atom_site_fract_y
 _atom_site_fract_z
 _atom_site_occupancy
  Li  Li0  1  0.82374203  0.28166401  0.03664421  1
  Li  Li1  1  0.49810055  0.27775578  0.54192154  1
  Li  Li2  1  0.46915913  0.88134783  0.85622751  1
  Li  Li3  1  0.31505245  0.77775678  0.54192154  1
  Li  Li4  1  0.96819423  0.38184861  0.36121451  1
  Li  Li5  1  0.98940897  0.78166501  0.03664421  1
  Li  Li6  1  0.34399387  0.38134883  0.85622651  1
  Li  Li7  1  0.84495977  0.88184761  0.36121451  1
  Si  Si8  1  0.98080882  0.09317480  0.68111334  1
  Si  Si9  1  0.83234318  0.59317480  0.68111434  1
  Ge  Ge10  1  0.48195426  0.59577615  0.18174330  1
  Ge  Ge11  1  0.33119974  0.09577615  0.18174330  1
  S  S12  1  0.50925977  0.14088873  0.00205919  1
  S  S13  1  0.01408203  0.04533277  0.16548455  1
  S  S14  1  0.34457179  0.34678902  0.31651514  1
  S  S15  1  0.81331408  0.13900484  0.50982659  1
  S  S16  1  0.96095250  0.34295268  0.80510186  1
  S  S17  1  0.79907197  0.54533277  0.16548455  1
  S  S18  1  0.28408620  0.04935477  0.66544125  1
  S  S19  1  0.46858221  0.84679002  0.31651514  1
  S  S20  1  0.85219950  0.84295368  0.80510086  1
  S  S21  1  0.30389323  0.64089073  0.00206119  1
  S  S22  1  0.99983992  0.63900284  0.50982659  1
  S  S23  1  0.52906680  0.54935577  0.66544125  1
