data_43_contcar
_audit_creation_date              2024-02-16
_audit_creation_method            'Materials Studio'
_symmetry_space_group_name_H-M    'P1'
_symmetry_Int_Tables_number       1
_symmetry_cell_setting            triclinic
loop_
_symmetry_equiv_pos_as_xyz
  x,y,z
_cell_length_a                    14.2377
_cell_length_b                    13.4740
_cell_length_c                    10.3777
_cell_angle_alpha                 80.7807
_cell_angle_beta                  89.5192
_cell_angle_gamma                 90.1099
loop_
_atom_site_label
_atom_site_type_symbol
_atom_site_fract_x
_atom_site_fract_y
_atom_site_fract_z
_atom_site_U_iso_or_equiv
_atom_site_adp_type
_atom_site_occupancy
Li1    Li    0.08554   0.26101   0.22876   0.00000  Uiso   1.00
Li2    Li    0.30036   0.00672   0.21482   0.00000  Uiso   1.00
Li3    Li    0.33603   0.23252   0.27740   0.00000  Uiso   1.00
Li4    Li    0.05264   0.49556   0.28247   0.00000  Uiso   1.00
Li5    Li    0.13520   0.16144   0.88659   0.00000  Uiso   1.00
Li6    Li    0.25376   0.40752   0.88170   0.00000  Uiso   1.00
Li7    Li    0.35458   0.35753   0.53094   0.00000  Uiso   1.00
Li8    Li    0.48874   0.08293   0.63525   0.00000  Uiso   1.00
Si9    Si    0.13445   0.37193   0.52240   0.00000  Uiso   1.00
Si10   Si    0.39458   0.12629  -0.01400   0.00000  Uiso   1.00
Ge11   Ge    0.22983   0.12314   0.51371   0.00000  Uiso   1.00
Ge12   Ge    0.49032   0.37185  -0.00676   0.00000  Uiso   1.00
S13    S     0.18675   0.12073   0.31171   0.00000  Uiso   1.00
S14    S     0.37217   0.18499   0.51983   0.00000  Uiso   1.00
S15    S     0.23001   0.45710   0.63382   0.00000  Uiso   1.00
S16    S     0.63191   0.30676  -0.00734   0.00000  Uiso   1.00
S17    S     0.19776   0.36742   0.34203   0.00000  Uiso   1.00
S18    S     0.44170   0.12639   0.17477   0.00000  Uiso   1.00
S19    S     0.49412   0.04024  -0.12081   0.00000  Uiso   1.00
S20    S     0.26218   0.05872  -0.02144   0.00000  Uiso   1.00
S21    S     0.00339   0.44201   0.51783   0.00000  Uiso   1.00
S22    S     0.12789   0.21422   0.63037   0.00000  Uiso   1.00
S23    S     0.44275   0.37521   0.19461   0.00000  Uiso   1.00
S24    S     0.39315   0.28172  -0.12593   0.00000  Uiso   1.00
Li25   Li    0.58554   0.26101   0.22876   0.00000  Uiso   1.00
Li26   Li    0.80036   0.00672   0.21482   0.00000  Uiso   1.00
Li27   Li    0.83603   0.23252   0.27740   0.00000  Uiso   1.00
Li28   Li    0.55264   0.49556   0.28247   0.00000  Uiso   1.00
Li29   Li    0.63520   0.16144   0.88659   0.00000  Uiso   1.00
Li30   Li    0.75376   0.40752   0.88170   0.00000  Uiso   1.00
Li31   Li    0.85458   0.35753   0.53094   0.00000  Uiso   1.00
Li32   Li    0.98874   0.08293   0.63525   0.00000  Uiso   1.00
Si33   Si    0.63445   0.37193   0.52240   0.00000  Uiso   1.00
Si34   Si    0.89458   0.12629  -0.01400   0.00000  Uiso   1.00
Ge35   Ge    0.72983   0.12314   0.51371   0.00000  Uiso   1.00
Ge36   Ge    0.99032   0.37185  -0.00676   0.00000  Uiso   1.00
S37    S     0.68675   0.12073   0.31171   0.00000  Uiso   1.00
S38    S     0.87217   0.18499   0.51983   0.00000  Uiso   1.00
S39    S     0.73001   0.45710   0.63382   0.00000  Uiso   1.00
S40    S     1.13191   0.30676  -0.00734   0.00000  Uiso   1.00
S41    S     0.69776   0.36742   0.34203   0.00000  Uiso   1.00
S42    S     0.94170   0.12639   0.17477   0.00000  Uiso   1.00
S43    S     0.99412   0.04024  -0.12081   0.00000  Uiso   1.00
S44    S     0.76218   0.05872  -0.02144   0.00000  Uiso   1.00
S45    S     0.50339   0.44201   0.51783   0.00000  Uiso   1.00
S46    S     0.62789   0.21422   0.63037   0.00000  Uiso   1.00
S47    S     0.94275   0.37521   0.19461   0.00000  Uiso   1.00
S48    S     0.89315   0.28172  -0.12593   0.00000  Uiso   1.00
Li49   Li    0.08554   0.76101   0.22876   0.00000  Uiso   1.00
Li50   Li    0.30036   0.50672   0.21482   0.00000  Uiso   1.00
Li51   Li    0.33603   0.73252   0.27740   0.00000  Uiso   1.00
Li52   Li    0.05264   0.99556   0.28247   0.00000  Uiso   1.00
Li53   Li    0.13520   0.66144   0.88659   0.00000  Uiso   1.00
Li54   Li    0.25376   0.90752   0.88170   0.00000  Uiso   1.00
Li55   Li    0.35458   0.85753   0.53094   0.00000  Uiso   1.00
Li56   Li    0.48874   0.58293   0.63525   0.00000  Uiso   1.00
Si57   Si    0.13445   0.87193   0.52240   0.00000  Uiso   1.00
Si58   Si    0.39458   0.62629  -0.01400   0.00000  Uiso   1.00
Ge59   Ge    0.22983   0.62314   0.51371   0.00000  Uiso   1.00
Ge60   Ge    0.49032   0.87185  -0.00676   0.00000  Uiso   1.00
S61    S     0.18675   0.62073   0.31171   0.00000  Uiso   1.00
S62    S     0.37217   0.68499   0.51983   0.00000  Uiso   1.00
S63    S     0.23001   0.95710   0.63382   0.00000  Uiso   1.00
S64    S     0.63191   0.80676  -0.00734   0.00000  Uiso   1.00
S65    S     0.19776   0.86742   0.34203   0.00000  Uiso   1.00
S66    S     0.44170   0.62639   0.17477   0.00000  Uiso   1.00
S67    S     0.49412   0.54024  -0.12081   0.00000  Uiso   1.00
S68    S     0.26218   0.55872  -0.02144   0.00000  Uiso   1.00
S69    S     0.00339   0.94201   0.51783   0.00000  Uiso   1.00
S70    S     0.12789   0.71422   0.63037   0.00000  Uiso   1.00
S71    S     0.44275   0.87521   0.19461   0.00000  Uiso   1.00
S72    S     0.39315   0.78172  -0.12593   0.00000  Uiso   1.00
Li73   Li    0.58554   0.76101   0.22876   0.00000  Uiso   1.00
Li74   Li    0.80036   0.50672   0.21482   0.00000  Uiso   1.00
Li75   Li    0.83603   0.73252   0.27740   0.00000  Uiso   1.00
Li76   Li    0.55264   0.99556   0.28247   0.00000  Uiso   1.00
Li77   Li    0.63520   0.66144   0.88659   0.00000  Uiso   1.00
Li78   Li    0.75376   0.90752   0.88170   0.00000  Uiso   1.00
Li79   Li    0.85458   0.85753   0.53094   0.00000  Uiso   1.00
Li80   Li    0.98874   0.58293   0.63525   0.00000  Uiso   1.00
Si81   Si    0.63445   0.87193   0.52240   0.00000  Uiso   1.00
Si82   Si    0.89458   0.62629  -0.01400   0.00000  Uiso   1.00
Ge83   Ge    0.72983   0.62314   0.51371   0.00000  Uiso   1.00
Ge84   Ge    0.99032   0.87185  -0.00676   0.00000  Uiso   1.00
S85    S     0.68675   0.62073   0.31171   0.00000  Uiso   1.00
S86    S     0.87217   0.68499   0.51983   0.00000  Uiso   1.00
S87    S     0.73001   0.95710   0.63382   0.00000  Uiso   1.00
S88    S     1.13191   0.80676  -0.00734   0.00000  Uiso   1.00
S89    S     0.69776   0.86742   0.34203   0.00000  Uiso   1.00
S90    S     0.94170   0.62639   0.17477   0.00000  Uiso   1.00
S91    S     0.99412   0.54024  -0.12081   0.00000  Uiso   1.00
S92    S     0.76218   0.55872  -0.02144   0.00000  Uiso   1.00
S93    S     0.50339   0.94201   0.51783   0.00000  Uiso   1.00
S94    S     0.62789   0.71422   0.63037   0.00000  Uiso   1.00
S95    S     0.94275   0.87521   0.19461   0.00000  Uiso   1.00
S96    S     0.89315   0.78172  -0.12593   0.00000  Uiso   1.00
loop_
_geom_bond_atom_site_label_1
_geom_bond_atom_site_label_2
_geom_bond_distance
_geom_bond_site_symmetry_2
_ccdc_geom_bond_type
Si9    S15     2.225   .     S
Si9    S17     2.080   .     S
Si9    S21     2.090   .     S
Si9    S22     2.239   .     S
Si10   S18     2.076   .     S
Si10   S19     2.230   .     S
Si10   S20     2.099   .     S
Si10   S24     2.226   .     S
Ge11   S13     2.194   .     S
Ge11   S14     2.195   .     S
Ge11   S63     2.380   1_545 S
Ge11   S22     2.352   .     S
Ge12   S16     2.200   .     S
Ge12   S67     2.385   .     S
Ge12   S23     2.199   .     S
Ge12   S24     2.328   .     S
S15    Ge59    2.380   .     S
S19    Ge60    2.385   1_545 S
Si33   S39     2.225   .     S
Si33   S41     2.080   .     S
Si33   S45     2.090   .     S
Si33   S46     2.239   .     S
Si34   S42     2.076   .     S
Si34   S43     2.230   .     S
Si34   S44     2.099   .     S
Si34   S48     2.226   .     S
Ge35   S37     2.194   .     S
Ge35   S38     2.195   .     S
Ge35   S87     2.380   1_545 S
Ge35   S46     2.352   .     S
Ge36   S40     2.200   .     S
Ge36   S91     2.385   .     S
Ge36   S47     2.199   .     S
Ge36   S48     2.328   .     S
S39    Ge83    2.380   .     S
S43    Ge84    2.385   1_545 S
Si57   S63     2.225   .     S
Si57   S65     2.080   .     S
Si57   S69     2.090   .     S
Si57   S70     2.239   .     S
Si58   S66     2.076   .     S
Si58   S67     2.230   .     S
Si58   S68     2.099   .     S
Si58   S72     2.226   .     S
Ge59   S61     2.194   .     S
Ge59   S62     2.195   .     S
Ge59   S70     2.352   .     S
Ge60   S64     2.200   .     S
Ge60   S19     2.385   1_565 S
Ge60   S71     2.199   .     S
Ge60   S72     2.328   .     S
S63    Ge11    2.380   1_565 S
Si81   S87     2.225   .     S
Si81   S89     2.080   .     S
Si81   S93     2.090   .     S
Si81   S94     2.239   .     S
Si82   S90     2.076   .     S
Si82   S91     2.230   .     S
Si82   S92     2.099   .     S
Si82   S96     2.226   .     S
Ge83   S85     2.194   .     S
Ge83   S86     2.195   .     S
Ge83   S94     2.352   .     S
Ge84   S88     2.200   .     S
Ge84   S43     2.385   1_565 S
Ge84   S95     2.199   .     S
Ge84   S96     2.328   .     S
S87    Ge35    2.380   1_565 S
