# generated using pymatgen
data_Li4SiGeS6
_symmetry_space_group_name_H-M   'P 1'
_cell_length_a   7.11886325
_cell_length_b   6.73697594
_cell_length_c   10.37772438
_cell_angle_alpha   80.78074086
_cell_angle_beta   89.51924404
_cell_angle_gamma   90.10985831
_symmetry_Int_Tables_number   1
_chemical_formula_structural   Li4SiGeS6
_chemical_formula_sum   'Li8 Si2 Ge2 S12'
_cell_volume   491.26243575
_cell_formula_units_Z   2
loop_
 _symmetry_equiv_pos_site_id
 _symmetry_equiv_pos_as_xyz
  1  'x, y, z'
loop_
 _atom_site_type_symbol
 _atom_site_label
 _atom_site_symmetry_multiplicity
 _atom_site_fract_x
 _atom_site_fract_y
 _atom_site_fract_z
 _atom_site_occupancy
  Li  Li0  1  0.17108820  0.52201772  0.22876427  1
  Li  Li1  1  0.60072244  0.01344194  0.21481897  1
  Li  Li2  1  0.67205942  0.46503611  0.27740111  1
  Li  Li3  1  0.10528731  0.99111226  0.28246768  1
  Li  Li4  1  0.27039222  0.32288071  0.88658929  1
  Li  Li5  1  0.50752333  0.81504250  0.88169636  1
  Li  Li6  1  0.70916109  0.71506146  0.53094290  1
  Li  Li7  1  0.97748736  0.16586333  0.63524776  1
  Si  Si8  1  0.26890682  0.74386657  0.52239899  1
  Si  Si9  1  0.78916549  0.25257079  0.98600174  1
  Ge  Ge10  1  0.45966572  0.24628605  0.51371038  1
  Ge  Ge11  1  0.98063730  0.74369043  0.99323774  1
  S  S12  1  0.37349262  0.24146073  0.31171156  1
  S  S13  1  0.74433766  0.36997772  0.51982872  1
  S  S14  1  0.46002637  0.91419454  0.63381921  1
  S  S15  1  0.26381377  0.61351982  -0.00733802  1
  S  S16  1  0.39551084  0.73483064  0.34203112  1
  S  S17  1  0.88339005  0.25278947  0.17477461  1
  S  S18  1  0.98823891  0.08048014  0.87918646  1
  S  S19  1  0.52435645  0.11744851  0.97856301  1
  S  S20  1  0.00678907  0.88401801  0.51783446  1
  S  S21  1  0.25577336  0.42844069  0.63036987  1
  S  S22  1  0.88550702  0.75041832  0.19460848  1
  S  S23  1  0.78630917  0.56343854  0.87406533  1
