# generated using pymatgen
data_Li4SiSnS6
_symmetry_space_group_name_H-M   'P 1'
_cell_length_a   7.15901568
_cell_length_b   9.93249862
_cell_length_c   7.04060164
_cell_angle_alpha   89.22871802
_cell_angle_beta   91.77775831
_cell_angle_gamma   88.94841631
_symmetry_Int_Tables_number   1
_chemical_formula_structural   Li4SiSnS6
_chemical_formula_sum   'Li8 Si2 Sn2 S12'
_cell_volume   500.26089702
_cell_formula_units_Z   2
loop_
 _symmetry_equiv_pos_site_id
 _symmetry_equiv_pos_as_xyz
  1  'x, y, z'
loop_
 _atom_site_type_symbol
 _atom_site_label
 _atom_site_symmetry_multiplicity
 _atom_site_fract_x
 _atom_site_fract_y
 _atom_site_fract_z
 _atom_site_occupancy
  Li  Li0  1  0.39494110  -0.00167533  0.16188166  1
  Li  Li1  1  -0.10505890  0.49832467  0.66188166  1
  Li  Li2  1  0.07869766  0.34086199  0.07423528  1
  Li  Li3  1  0.57869766  0.84086299  0.57423528  1
  Li  Li4  1  0.31503635  0.21577591  0.62246819  1
  Li  Li5  1  0.81503635  0.71577591  0.12246819  1
  Li  Li6  1  0.22240007  0.53076553  0.30034846  1
  Li  Li7  1  0.72240007  0.03076553  0.80034746  1
  Si  Si8  1  0.05048609  0.83152266  0.48433007  1
  Si  Si9  1  0.55048609  0.33152266  -0.01566993  1
  Sn  Sn10  1  0.88508579  0.12699975  0.37382126  1
  Sn  Sn11  1  0.38508579  0.62699875  0.87382126  1
  S  S12  1  0.32630672  0.19959884  -0.02924605  1
  S  S13  1  0.82630572  0.69959884  0.47075395  1
  S  S14  1  0.53948355  0.49625342  0.17431269  1
  S  S15  1  0.03948255  -0.00374658  0.67431269  1
  S  S16  1  0.05666129  0.33024679  0.44271138  1
  S  S17  1  0.55666129  0.83024679  0.94271138  1
  S  S18  1  0.05145021  0.93674141  0.20898411  1
  S  S19  1  0.55145021  0.43674141  0.70898411  1
  S  S20  1  0.80414208  0.21323703  0.01245037  1
  S  S21  1  0.30414208  0.71323803  0.51245037  1
  S  S22  1  0.57081909  0.07518099  0.46921559  1
  S  S23  1  0.07081909  0.57518099  0.96921559  1
