# generated using pymatgen
data_Li2SiS3
_symmetry_space_group_name_H-M   'P 1'
_cell_length_a   11.81305599
_cell_length_b   5.93835374
_cell_length_c   6.88020748
_cell_angle_alpha   90.00000000
_cell_angle_beta   90.00000000
_cell_angle_gamma   90.03433643
_symmetry_Int_Tables_number   1
_chemical_formula_structural   Li2SiS3
_chemical_formula_sum   'Li8 Si4 S12'
_cell_volume   482.64719172
_cell_formula_units_Z   4
loop_
 _symmetry_equiv_pos_site_id
 _symmetry_equiv_pos_as_xyz
  1  'x, y, z'
loop_
 _atom_site_type_symbol
 _atom_site_label
 _atom_site_symmetry_multiplicity
 _atom_site_fract_x
 _atom_site_fract_y
 _atom_site_fract_z
 _atom_site_occupancy
  Li  Li0  1  0.20464784  0.60180808  0.14284174  1
  Li  Li1  1  0.88135712  0.10182660  0.44351264  1
  Li  Li2  1  0.38163416  0.48447492  0.64284074  1
  Li  Li3  1  0.70492588  -0.01554260  -0.05648636  1
  Li  Li4  1  0.87828574  0.60198232  0.14011624  1
  Li  Li5  1  0.20800059  0.10214406  0.44613440  1
  Li  Li6  1  0.70799926  0.48430068  0.64011524  1
  Li  Li7  1  0.37827841  -0.01586506  0.94613140  1
  Si  Si8  1  0.54254507  0.48834190  0.12927987  1
  Si  Si9  1  0.54365206  -0.01155494  0.45689289  1
  Si  Si10  1  0.04373893  0.59794210  0.62928087  1
  Si  Si11  1  0.04262994  0.09783794  0.95689389  1
  S  S12  1  0.89226163  0.01423367  0.09916000  1
  S  S13  1  0.19416009  0.51430299  0.48756098  1
  S  S14  1  0.69402237  0.07204933  0.59915800  1
  S  S15  1  0.39212191  0.57197901  0.98756198  1
  S  S16  1  0.19194251  0.01390442  0.10154835  1
  S  S17  1  0.89430000  0.51372828  0.48461835  1
  S  S18  1  0.39433949  0.07237858  0.60154635  1
  S  S19  1  0.69198200  0.57255772  -0.01538265  1
  S  S20  1  0.54263064  0.11358442  0.15615218  1
  S  S21  1  0.54384961  0.61365480  0.42987735  1
  S  S22  1  0.04365336  0.97270058  0.65615218  1
  S  S23  1  0.04243239  0.47262720  0.92987635  1
