data_95_2x1x2_contcar_sym
_audit_creation_date              2023-03-31
_audit_creation_method            'Materials Studio'
_symmetry_space_group_name_H-M    'P1'
_symmetry_Int_Tables_number       1
_symmetry_cell_setting            triclinic
loop_
_symmetry_equiv_pos_as_xyz
  x,y,z
_cell_length_a                    13.4450
_cell_length_b                    11.7258
_cell_length_c                    13.1525
_cell_angle_alpha                 90.0000
_cell_angle_beta                  89.6640
_cell_angle_gamma                 90.0000
loop_
_atom_site_label
_atom_site_type_symbol
_atom_site_fract_x
_atom_site_fract_y
_atom_site_fract_z
_atom_site_U_iso_or_equiv
_atom_site_adp_type
_atom_site_occupancy
Li1    Li    0.16582   0.16160   0.16457   0.00000  Uiso   1.00
Li2    Li    0.31049   0.18569   0.41876   0.00000  Uiso   1.00
S3     S     0.64473  -0.15001   0.34935   0.00000  Uiso   1.00
S4     S     0.33513   0.16141   0.60317   0.00000  Uiso   1.00
Li5    Li    0.41582   0.66160   0.16457   0.00000  Uiso   1.00
Li6    Li    0.06049   0.68569   0.41876   0.00000  Uiso   1.00
S7     S     0.39473   0.34999   0.34935   0.00000  Uiso   1.00
S8     S     0.08513   0.66141   0.60317   0.00000  Uiso   1.00
Li9    Li    0.16582   0.83840   0.16457   0.00000  Uiso   1.00
Li10   Li    0.31049   0.81431   0.41876   0.00000  Uiso   1.00
S11    S     0.64473   0.15001   0.34935   0.00000  Uiso   1.00
S12    S     0.33513  -0.16141   0.60317   0.00000  Uiso   1.00
Li13   Li    0.41582   0.33840   0.16457   0.00000  Uiso   1.00
Li14   Li    0.06049   0.31431   0.41876   0.00000  Uiso   1.00
S15    S     0.39473   0.65001   0.34935   0.00000  Uiso   1.00
S16    S     0.08513   0.33859   0.60317   0.00000  Uiso   1.00
Si17   Si    0.58008   0.00000   0.40543   0.00000  Uiso   1.00
Ge18   Ge    0.40565  -0.00000   0.56066   0.00000  Uiso   1.00
S19    S     0.57699   0.00000   0.57483   0.00000  Uiso   1.00
S20    S     0.41771   0.00000   0.38356   0.00000  Uiso   1.00
Si21   Si    0.33008   0.50000   0.40543   0.00000  Uiso   1.00
Ge22   Ge    0.15565   0.50000   0.56066   0.00000  Uiso   1.00
S23    S     0.32699   0.50000   0.57483   0.00000  Uiso   1.00
S24    S     0.16771   0.50000   0.38356   0.00000  Uiso   1.00
Li25   Li    0.66582   0.16160   0.16457   0.00000  Uiso   1.00
Li26   Li    0.81049   0.18569   0.41876   0.00000  Uiso   1.00
S27    S     1.14473  -0.15001   0.34935   0.00000  Uiso   1.00
S28    S     0.83513   0.16141   0.60317   0.00000  Uiso   1.00
Li29   Li    0.91582   0.66160   0.16457   0.00000  Uiso   1.00
Li30   Li    0.56049   0.68569   0.41876   0.00000  Uiso   1.00
S31    S     0.89473   0.34999   0.34935   0.00000  Uiso   1.00
S32    S     0.58513   0.66141   0.60317   0.00000  Uiso   1.00
Li33   Li    0.66582   0.83840   0.16457   0.00000  Uiso   1.00
Li34   Li    0.81049   0.81431   0.41876   0.00000  Uiso   1.00
S35    S     1.14473   0.15001   0.34935   0.00000  Uiso   1.00
S36    S     0.83513  -0.16141   0.60317   0.00000  Uiso   1.00
Li37   Li    0.91582   0.33840   0.16457   0.00000  Uiso   1.00
Li38   Li    0.56049   0.31431   0.41876   0.00000  Uiso   1.00
S39    S     0.89473   0.65001   0.34935   0.00000  Uiso   1.00
S40    S     0.58513   0.33859   0.60317   0.00000  Uiso   1.00
Si41   Si    1.08008   0.00000   0.40543   0.00000  Uiso   1.00
Ge42   Ge    0.90565  -0.00000   0.56066   0.00000  Uiso   1.00
S43    S     1.07699   0.00000   0.57483   0.00000  Uiso   1.00
S44    S     0.91771  -0.00000   0.38356   0.00000  Uiso   1.00
Si45   Si    0.83008   0.50000   0.40543   0.00000  Uiso   1.00
Ge46   Ge    0.65565   0.50000   0.56066   0.00000  Uiso   1.00
S47    S     0.82699   0.50000   0.57483   0.00000  Uiso   1.00
S48    S     0.66771   0.50000   0.38356   0.00000  Uiso   1.00
Li49   Li    0.16582   0.16160   0.66457   0.00000  Uiso   1.00
Li50   Li    0.31049   0.18569   0.91876   0.00000  Uiso   1.00
S51    S     0.64473  -0.15001   0.84935   0.00000  Uiso   1.00
S52    S     0.33513   0.16141   1.10317   0.00000  Uiso   1.00
Li53   Li    0.41582   0.66160   0.66457   0.00000  Uiso   1.00
Li54   Li    0.06049   0.68569   0.91876   0.00000  Uiso   1.00
S55    S     0.39473   0.34999   0.84935   0.00000  Uiso   1.00
S56    S     0.08513   0.66141   1.10317   0.00000  Uiso   1.00
Li57   Li    0.16582   0.83840   0.66457   0.00000  Uiso   1.00
Li58   Li    0.31049   0.81431   0.91876   0.00000  Uiso   1.00
S59    S     0.64473   0.15001   0.84935   0.00000  Uiso   1.00
S60    S     0.33513  -0.16141   1.10317   0.00000  Uiso   1.00
Li61   Li    0.41582   0.33840   0.66457   0.00000  Uiso   1.00
Li62   Li    0.06049   0.31431   0.91876   0.00000  Uiso   1.00
S63    S     0.39473   0.65001   0.84935   0.00000  Uiso   1.00
S64    S     0.08513   0.33859   1.10317   0.00000  Uiso   1.00
Si65   Si    0.58008   0.00000   0.90543   0.00000  Uiso   1.00
Ge66   Ge    0.40565   0.00000   1.06066   0.00000  Uiso   1.00
S67    S     0.57699   0.00000   1.07483   0.00000  Uiso   1.00
S68    S     0.41771   0.00000   0.88356   0.00000  Uiso   1.00
Si69   Si    0.33008   0.50000   0.90543   0.00000  Uiso   1.00
Ge70   Ge    0.15565   0.50000   1.06066   0.00000  Uiso   1.00
S71    S     0.32699   0.50000   1.07483   0.00000  Uiso   1.00
S72    S     0.16771   0.50000   0.88356   0.00000  Uiso   1.00
Li73   Li    0.66582   0.16160   0.66457   0.00000  Uiso   1.00
Li74   Li    0.81049   0.18569   0.91876   0.00000  Uiso   1.00
S75    S     1.14473  -0.15001   0.84935   0.00000  Uiso   1.00
S76    S     0.83513   0.16141   1.10317   0.00000  Uiso   1.00
Li77   Li    0.91582   0.66160   0.66457   0.00000  Uiso   1.00
Li78   Li    0.56049   0.68569   0.91876   0.00000  Uiso   1.00
S79    S     0.89473   0.34999   0.84935   0.00000  Uiso   1.00
S80    S     0.58513   0.66141   1.10317   0.00000  Uiso   1.00
Li81   Li    0.66582   0.83840   0.66457   0.00000  Uiso   1.00
Li82   Li    0.81049   0.81431   0.91876   0.00000  Uiso   1.00
S83    S     1.14473   0.15001   0.84935   0.00000  Uiso   1.00
S84    S     0.83513  -0.16141   1.10317   0.00000  Uiso   1.00
Li85   Li    0.91582   0.33840   0.66457   0.00000  Uiso   1.00
Li86   Li    0.56049   0.31431   0.91876   0.00000  Uiso   1.00
S87    S     0.89473   0.65001   0.84935   0.00000  Uiso   1.00
S88    S     0.58513   0.33859   1.10317   0.00000  Uiso   1.00
Si89   Si    1.08008   0.00000   0.90543   0.00000  Uiso   1.00
Ge90   Ge    0.90565  -0.00000   1.06066   0.00000  Uiso   1.00
S91    S     1.07699  -0.00000   1.07483   0.00000  Uiso   1.00
S92    S     0.91771   0.00000   0.88356   0.00000  Uiso   1.00
Si93   Si    0.83008   0.50000   0.90543   0.00000  Uiso   1.00
Ge94   Ge    0.65565   0.50000   1.06066   0.00000  Uiso   1.00
S95    S     0.82699   0.50000   1.07483   0.00000  Uiso   1.00
S96    S     0.66771   0.50000   0.88356   0.00000  Uiso   1.00
loop_
_geom_bond_atom_site_label_1
_geom_bond_atom_site_label_2
_geom_bond_distance
_geom_bond_site_symmetry_2
_ccdc_geom_bond_type
S3     Si17    2.094   .     S
S4     Ge18    2.188   .     S
S7     Si21    2.094   .     S
S8     Ge22    2.188   .     S
S11    Si17    2.094   .     S
S12    Ge18    2.188   .     S
S15    Si21    2.094   .     S
S16    Ge22    2.188   .     S
Si17   S19     2.228   .     S
Si17   S20     2.204   .     S
Ge18   S19     2.312   .     S
Ge18   S20     2.334   .     S
Si21   S23     2.228   .     S
Si21   S24     2.204   .     S
Ge22   S23     2.312   .     S
Ge22   S24     2.334   .     S
S27    Si41    2.094   .     S
S28    Ge42    2.188   .     S
S31    Si45    2.094   .     S
S32    Ge46    2.188   .     S
S35    Si41    2.094   .     S
S36    Ge42    2.188   .     S
S39    Si45    2.094   .     S
S40    Ge46    2.188   .     S
Si41   S43     2.228   .     S
Si41   S44     2.204   .     S
Ge42   S43     2.312   .     S
Ge42   S44     2.334   .     S
Si45   S47     2.228   .     S
Si45   S48     2.204   .     S
Ge46   S47     2.312   .     S
Ge46   S48     2.334   .     S
S51    Si65    2.094   .     S
S52    Ge66    2.188   .     S
S55    Si69    2.094   .     S
S56    Ge70    2.188   .     S
S59    Si65    2.094   .     S
S60    Ge66    2.188   .     S
S63    Si69    2.094   .     S
S64    Ge70    2.188   .     S
Si65   S67     2.228   .     S
Si65   S68     2.204   .     S
Ge66   S67     2.312   .     S
Ge66   S68     2.334   .     S
Si69   S71     2.228   .     S
Si69   S72     2.204   .     S
Ge70   S71     2.312   .     S
Ge70   S72     2.334   .     S
S75    Si89    2.094   .     S
S76    Ge90    2.188   .     S
S79    Si93    2.094   .     S
S80    Ge94    2.188   .     S
S83    Si89    2.094   .     S
S84    Ge90    2.188   .     S
S87    Si93    2.094   .     S
S88    Ge94    2.188   .     S
Si89   S91     2.228   .     S
Si89   S92     2.204   .     S
Ge90   S91     2.312   .     S
Ge90   S92     2.334   .     S
Si93   S95     2.228   .     S
Si93   S96     2.204   .     S
Ge94   S95     2.312   .     S
Ge94   S96     2.334   .     S
