data_105_contcar
_audit_creation_date              2024-02-08
_audit_creation_method            'Materials Studio'
_symmetry_space_group_name_H-M    'P1'
_symmetry_Int_Tables_number       1
_symmetry_cell_setting            triclinic
loop_
_symmetry_equiv_pos_as_xyz
  x,y,z
_cell_length_a                    9.8190
_cell_length_b                    13.8611
_cell_length_c                    7.7356
_cell_angle_alpha                 89.2035
_cell_angle_beta                  89.1489
_cell_angle_gamma                 89.7867
loop_
_atom_site_label
_atom_site_type_symbol
_atom_site_fract_x
_atom_site_fract_y
_atom_site_fract_z
_atom_site_U_iso_or_equiv
_atom_site_adp_type
_atom_site_occupancy
Li1    Li    0.09500   0.07135   0.46753   0.00000  Uiso   1.00
Li2    Li    0.59488   0.32137   0.96755   0.00000  Uiso   1.00
Li3    Li    0.50674   0.11771   0.99876   0.00000  Uiso   1.00
Li4    Li    0.00671   0.36770   0.49874   0.00000  Uiso   1.00
Li5    Li    0.46736   0.34196   0.48166   0.00000  Uiso   1.00
Li6    Li    0.96725   0.09199   0.98167   0.00000  Uiso   1.00
Li7    Li    0.48196   0.11852   0.48584   0.00000  Uiso   1.00
Li8    Li    0.98192   0.36849   0.98578   0.00000  Uiso   1.00
Si9    Si    0.77714   0.48092   0.28352   0.00000  Uiso   1.00
Si10   Si    0.27716   0.23093   0.78350   0.00000  Uiso   1.00
Ge11   Ge    0.71407   0.22903   0.27869   0.00000  Uiso   1.00
Ge12   Ge    0.21409   0.47904   0.77869   0.00000  Uiso   1.00
S13    S     0.64838   0.48102   0.07285   0.00000  Uiso   1.00
S14    S     0.14838   0.23100   0.57285   0.00000  Uiso   1.00
S15    S     0.24593   0.10731   0.96454   0.00000  Uiso   1.00
S16    S     0.74595   0.35728   0.46457   0.00000  Uiso   1.00
S17    S     0.32771   0.48451   0.53113   0.00000  Uiso   1.00
S18    S     0.82759   0.23451   0.03107   0.00000  Uiso   1.00
S19    S     0.74424   0.09985   0.46450   0.00000  Uiso   1.00
S20    S     0.24428   0.34988   0.96449   0.00000  Uiso   1.00
S21    S     0.49180   0.23404   0.23178   0.00000  Uiso   1.00
S22    S    -0.00813   0.48406   0.73170   0.00000  Uiso   1.00
S23    S     0.98977   0.47876   0.22929   0.00000  Uiso   1.00
S24    S     0.48978   0.22876   0.72927   0.00000  Uiso   1.00
Li25   Li    0.09500   0.57135   0.46753   0.00000  Uiso   1.00
Li26   Li    0.59488   0.82137   0.96755   0.00000  Uiso   1.00
Li27   Li    0.50674   0.61771   0.99876   0.00000  Uiso   1.00
Li28   Li    0.00671   0.86770   0.49874   0.00000  Uiso   1.00
Li29   Li    0.46736   0.84196   0.48166   0.00000  Uiso   1.00
Li30   Li    0.96725   0.59199   0.98167   0.00000  Uiso   1.00
Li31   Li    0.48196   0.61852   0.48584   0.00000  Uiso   1.00
Li32   Li    0.98192   0.86849   0.98578   0.00000  Uiso   1.00
Si33   Si    0.77714   0.98092   0.28352   0.00000  Uiso   1.00
Si34   Si    0.27716   0.73093   0.78350   0.00000  Uiso   1.00
Ge35   Ge    0.71407   0.72903   0.27869   0.00000  Uiso   1.00
Ge36   Ge    0.21409   0.97904   0.77869   0.00000  Uiso   1.00
S37    S     0.64838   0.98102   0.07285   0.00000  Uiso   1.00
S38    S     0.14838   0.73100   0.57285   0.00000  Uiso   1.00
S39    S     0.24593   0.60731   0.96454   0.00000  Uiso   1.00
S40    S     0.74595   0.85728   0.46457   0.00000  Uiso   1.00
S41    S     0.32771   0.98451   0.53113   0.00000  Uiso   1.00
S42    S     0.82759   0.73451   0.03107   0.00000  Uiso   1.00
S43    S     0.74424   0.59985   0.46450   0.00000  Uiso   1.00
S44    S     0.24428   0.84988   0.96449   0.00000  Uiso   1.00
S45    S     0.49180   0.73404   0.23178   0.00000  Uiso   1.00
S46    S    -0.00813   0.98406   0.73170   0.00000  Uiso   1.00
S47    S     0.98977   0.97876   0.22929   0.00000  Uiso   1.00
S48    S     0.48978   0.72876   0.72927   0.00000  Uiso   1.00
loop_
_geom_bond_atom_site_label_1
_geom_bond_atom_site_label_2
_geom_bond_distance
_geom_bond_site_symmetry_2
_ccdc_geom_bond_type
Si9    S13     2.077   .     S
Si9    S16     2.217   .     S
Si9    S43     2.197   .     S
Si9    S23     2.124   .     S
Si10   S14     2.077   .     S
Si10   S15     2.217   .     S
Si10   S20     2.198   .     S
Si10   S24     2.124   .     S
Ge11   S16     2.327   .     S
Ge11   S18     2.202   .     S
Ge11   S19     2.302   .     S
Ge11   S21     2.218   .     S
Ge12   S39     2.327   .     S
Ge12   S17     2.202   .     S
Ge12   S20     2.301   .     S
Ge12   S22     2.218   .     S
S15    Ge36    2.327   1_545 S
S19    Si33    2.197   1_545 S
Si33   S37     2.077   .     S
Si33   S40     2.217   .     S
Si33   S19     2.197   1_565 S
Si33   S47     2.124   .     S
Si34   S38     2.077   .     S
Si34   S39     2.217   .     S
Si34   S44     2.198   .     S
Si34   S48     2.124   .     S
Ge35   S40     2.327   .     S
Ge35   S42     2.202   .     S
Ge35   S43     2.302   .     S
Ge35   S45     2.218   .     S
Ge36   S15     2.327   1_565 S
Ge36   S41     2.202   .     S
Ge36   S44     2.301   .     S
Ge36   S46     2.218   .     S
