data_10_12_sym
_audit_creation_date              2024-04-01
_audit_creation_method            'Materials Studio'
_symmetry_space_group_name_H-M    'P212121'
_symmetry_Int_Tables_number       19
_symmetry_cell_setting            orthorhombic
loop_
_symmetry_equiv_pos_as_xyz
  x,y,z
  -x+1/2,-y,z+1/2
  -x,y+1/2,-z+1/2
  x+1/2,-y+1/2,-z
_cell_length_a                    11.8354
_cell_length_b                    7.6529
_cell_length_c                    5.6948
_cell_angle_alpha                 90.0000
_cell_angle_beta                  90.0000
_cell_angle_gamma                 90.0000
loop_
_atom_site_label
_atom_site_type_symbol
_atom_site_fract_x
_atom_site_fract_y
_atom_site_fract_z
_atom_site_U_iso_or_equiv
_atom_site_adp_type
_atom_site_occupancy
Li0    Li    0.65184   0.42456   0.58324   0.00000  Uiso   1.00
Li4    Li    0.51171  -0.11146   0.49503   0.00000  Uiso   1.00
Ge8    Ge    0.82793   0.88727   0.49678   0.00000  Uiso   1.00
S12    S     0.51387   0.11221   0.79239   0.00000  Uiso   1.00
S16    S     0.81917   0.62697   0.66315   0.00000  Uiso   1.00
S20    S     1.17880   0.62870   0.76509   0.00000  Uiso   1.00
loop_
_geom_bond_atom_site_label_1
_geom_bond_atom_site_label_2
_geom_bond_distance
_geom_bond_site_symmetry_2
_ccdc_geom_bond_type
Ge8    S12     2.205   2_664 S
Ge8    S16     2.208   .     S
Ge8    S20     2.293   3_756 S
Ge8    S20     2.314   4_466 S
S12    Ge8     2.205   2_665 S
S20    Ge8     2.314   4_566 S
S20    Ge8     2.293   3_746 S
