# generated using pymatgen
data_Li4SiGeS6
_symmetry_space_group_name_H-M   'P 1'
_cell_length_a   8.78864065
_cell_length_b   6.60150291
_cell_length_c   8.77299340
_cell_angle_alpha   78.70568915
_cell_angle_beta   86.06764289
_cell_angle_gamma   78.92762737
_symmetry_Int_Tables_number   1
_chemical_formula_structural   Li4SiGeS6
_chemical_formula_sum   'Li8 Si2 Ge2 S12'
_cell_volume   489.59161576
_cell_formula_units_Z   2
loop_
 _symmetry_equiv_pos_site_id
 _symmetry_equiv_pos_as_xyz
  1  'x, y, z'
loop_
 _atom_site_type_symbol
 _atom_site_label
 _atom_site_symmetry_multiplicity
 _atom_site_fract_x
 _atom_site_fract_y
 _atom_site_fract_z
 _atom_site_occupancy
  Li  Li0  1  0.37071934  0.34591489  0.97318407  1
  Li  Li1  1  0.87071834  0.84591489  0.47318507  1
  Li  Li2  1  0.71180493  0.32881932  0.62716438  1
  Li  Li3  1  0.21180593  0.82882032  0.12716438  1
  Li  Li4  1  0.30313389  0.59711435  0.53587679  1
  Li  Li5  1  0.80313389  0.09711435  0.03587679  1
  Li  Li6  1  0.46149473  0.07896638  0.37490073  1
  Li  Li7  1  0.96149473  0.57896638  0.87490073  1
  Si  Si8  1  0.61542665  0.57492124  0.19835582  1
  Si  Si9  1  0.11542665  0.07492124  0.69835682  1
  Ge  Ge10  1  0.02919178  0.32110919  0.28281337  1
  Ge  Ge11  1  0.52919278  0.82111019  0.78281337  1
  S  S12  1  0.70298324  0.76622602  -0.01457259  1
  S  S13  1  0.20298324  0.26622602  0.48542741  1
  S  S14  1  0.80374735  0.52663860  0.36637963  1
  S  S15  1  0.30374635  0.02663960  0.86637963  1
  S  S16  1  0.42681465  0.75867768  0.29550565  1
  S  S17  1  0.92681365  0.25867868  0.79550565  1
  S  S18  1  0.57770867  0.28850425  0.15622405  1
  S  S19  1  0.07770867  0.78850525  0.65622505  1
  S  S20  1  -0.01252374  0.02030881  0.24162790  1
  S  S21  1  0.48747626  0.52030881  0.74162690  1
  S  S22  1  0.63215250  0.01545128  0.58519321  1
  S  S23  1  0.13215250  0.51545028  0.08519321  1
